* SPICE3 file created from full_optimized.ext - technology: scmos

.option scale=0.09u

.global Vdd Gnd 

.subckt inv_cmos IN w_0_0# gnd vdd OUT
M1000 OUT IN vdd w_0_0# pfet w=50 l=2
+  ad=250 pd=110 as=250 ps=110
M1001 OUT IN gnd Gnd nfet w=20 l=2
+  ad=100 pd=50 as=100 ps=50
C0 OUT vdd 0.52fF
C1 OUT gnd 0.21fF
C2 w_0_0# vdd 0.07fF
C3 w_0_0# OUT 0.07fF
C4 IN vdd 0.02fF
C5 IN OUT 0.05fF
C6 IN gnd 0.05fF
C7 IN w_0_0# 0.06fF
C8 gnd Gnd 0.06fF
C9 OUT Gnd 0.05fF
C10 vdd Gnd 0.00fF
C11 IN Gnd 0.13fF
C12 w_0_0# Gnd 1.49fF
.ends

.subckt d_ff_optimized vdd clk inv_cmos_0/OUT Q inv_cmos_1/IN inv_cmos_4/IN inv_cmos_4/w_0_0#
+ inv_cmos_3/IN gnd D inv_cmos_0/w_0_0#
Xinv_cmos_3 inv_cmos_3/IN inv_cmos_4/w_0_0# gnd vdd inv_cmos_4/IN inv_cmos
Xinv_cmos_4 inv_cmos_4/IN inv_cmos_4/w_0_0# gnd vdd Q inv_cmos
Xinv_cmos_0 clk inv_cmos_0/w_0_0# gnd vdd inv_cmos_0/OUT inv_cmos
Xinv_cmos_1 inv_cmos_1/IN inv_cmos_2/w_0_0# gnd vdd inv_cmos_2/IN inv_cmos
Xinv_cmos_2 inv_cmos_2/IN inv_cmos_2/w_0_0# gnd vdd inv_cmos_2/OUT inv_cmos
M1000 Q inv_cmos_0/OUT inv_cmos_3/IN Gnd nfet w=20 l=2
+  ad=78 pd=50 as=224 ps=100
M1001 inv_cmos_2/OUT clk inv_cmos_3/IN Gnd nfet w=20 l=2
+  ad=720 pd=100 as=0 ps=0
M1002 inv_cmos_1/IN clk inv_cmos_2/OUT Gnd nfet w=20 l=2
+  ad=280 pd=58 as=0 ps=0
M1003 inv_cmos_1/IN inv_cmos_0/OUT D Gnd nfet w=20 l=2
+  ad=0 pd=0 as=100 ps=50
C0 inv_cmos_2/OUT inv_cmos_1/IN 0.35fF
C1 inv_cmos_2/IN gnd 0.23fF
C2 inv_cmos_2/IN clk 0.09fF
C3 inv_cmos_2/IN inv_cmos_2/w_0_0# -0.00fF
C4 inv_cmos_2/OUT inv_cmos_3/IN 0.21fF
C5 inv_cmos_2/OUT vdd 0.58fF
C6 inv_cmos_0/OUT gnd 0.03fF
C7 inv_cmos_0/OUT clk 0.38fF
C8 inv_cmos_0/OUT inv_cmos_2/w_0_0# 0.01fF
C9 inv_cmos_3/IN inv_cmos_1/IN 0.57fF
C10 inv_cmos_1/IN vdd 0.26fF
C11 inv_cmos_4/w_0_0# gnd 0.03fF
C12 inv_cmos_2/IN inv_cmos_0/OUT 0.06fF
C13 inv_cmos_3/IN vdd 0.50fF
C14 inv_cmos_1/IN D 0.21fF
C15 inv_cmos_0/w_0_0# vdd 0.02fF
C16 inv_cmos_2/OUT gnd 0.03fF
C17 inv_cmos_2/OUT clk 0.33fF
C18 inv_cmos_2/OUT inv_cmos_2/w_0_0# 0.01fF
C19 inv_cmos_4/IN inv_cmos_3/IN 0.00fF
C20 inv_cmos_4/IN vdd 0.55fF
C21 inv_cmos_2/IN inv_cmos_2/OUT 0.12fF
C22 inv_cmos_1/IN gnd 0.51fF
C23 inv_cmos_1/IN clk 0.19fF
C24 inv_cmos_1/IN inv_cmos_2/w_0_0# 0.03fF
C25 Q inv_cmos_3/IN 0.21fF
C26 Q vdd 0.68fF
C27 inv_cmos_3/IN gnd 0.56fF
C28 gnd vdd 0.23fF
C29 inv_cmos_3/IN clk 0.05fF
C30 vdd clk 0.21fF
C31 inv_cmos_2/OUT inv_cmos_0/OUT 0.05fF
C32 inv_cmos_2/w_0_0# vdd 0.13fF
C33 inv_cmos_0/w_0_0# clk 0.11fF
C34 inv_cmos_2/IN inv_cmos_1/IN 0.00fF
C35 inv_cmos_2/IN inv_cmos_3/IN 0.00fF
C36 inv_cmos_2/IN vdd 0.55fF
C37 inv_cmos_0/OUT inv_cmos_1/IN 0.07fF
C38 inv_cmos_3/IN inv_cmos_0/OUT 0.00fF
C39 inv_cmos_0/OUT vdd 0.35fF
C40 inv_cmos_4/IN gnd 0.24fF
C41 inv_cmos_0/w_0_0# inv_cmos_0/OUT 0.07fF
C42 Q gnd 0.46fF
C43 inv_cmos_0/OUT D 0.22fF
C44 inv_cmos_2/w_0_0# clk 0.27fF
C45 inv_cmos_3/IN inv_cmos_4/w_0_0# 0.04fF
C46 inv_cmos_4/w_0_0# vdd 0.13fF
C47 D Gnd 0.04fF
C48 inv_cmos_2/OUT Gnd 0.21fF
C49 inv_cmos_2/IN Gnd 0.01fF
C50 inv_cmos_1/IN Gnd 0.85fF
C51 gnd Gnd 0.45fF
C52 inv_cmos_0/OUT Gnd 0.36fF
C53 vdd Gnd -0.51fF
C54 clk Gnd 0.77fF
C55 Q Gnd -0.04fF
C56 inv_cmos_4/IN Gnd 0.03fF
C57 inv_cmos_3/IN Gnd 0.11fF
.ends

.subckt nor_3_cmos a_23_0# w_n6_n6# Y a_7_0# gnd A vdd B C
M1000 a_7_0# A vdd w_n6_n6# pfet w=150 l=2
+  ad=1500 pd=620 as=750 ps=310
M1001 Y C a_23_0# w_n6_n6# pfet w=150 l=2
+  ad=750 pd=310 as=1500 ps=620
M1002 a_23_0# B a_7_0# w_n6_n6# pfet w=150 l=2
+  ad=0 pd=0 as=0 ps=0
M1003 Y A gnd Gnd nfet w=20 l=2
+  ad=300 pd=150 as=300 ps=150
M1004 Y B gnd Gnd nfet w=20 l=2
+  ad=0 pd=0 as=0 ps=0
M1005 Y C gnd Gnd nfet w=20 l=2
+  ad=0 pd=0 as=0 ps=0
C0 w_n6_n6# A 0.06fF
C1 a_23_0# Y 1.55fF
C2 w_n6_n6# C 0.06fF
C3 a_23_0# a_7_0# 1.55fF
C4 vdd a_7_0# 1.55fF
C5 gnd Y 1.21fF
C6 a_23_0# w_n6_n6# 0.32fF
C7 w_n6_n6# vdd 0.17fF
C8 Y B 0.19fF
C9 w_n6_n6# Y 0.17fF
C10 a_23_0# C 0.02fF
C11 Y A 0.05fF
C12 B a_7_0# 0.02fF
C13 gnd A 0.05fF
C14 w_n6_n6# a_7_0# 0.32fF
C15 Y C 0.24fF
C16 w_n6_n6# B 0.06fF
C17 gnd Gnd 0.23fF
C18 Y Gnd 0.22fF
C19 a_23_0# Gnd 0.00fF
C20 a_7_0# Gnd 0.00fF
C21 vdd Gnd 0.01fF
C22 C Gnd 0.17fF
C23 B Gnd 0.17fF
C24 A Gnd 0.17fF
C25 w_n6_n6# Gnd 9.11fF
.ends

.subckt nand_3_cmos w_n6_n6# a_7_n81# Y gnd A vdd B C a_23_n81#
M1000 Y A vdd w_n6_n6# pfet w=50 l=2
+  ad=750 pd=330 as=750 ps=330
M1001 Y C vdd w_n6_n6# pfet w=50 l=2
+  ad=0 pd=0 as=0 ps=0
M1002 Y B vdd w_n6_n6# pfet w=50 l=2
+  ad=0 pd=0 as=0 ps=0
M1003 a_7_n81# A gnd Gnd nfet w=60 l=2
+  ad=600 pd=260 as=300 ps=130
M1004 a_23_n81# B a_7_n81# Gnd nfet w=60 l=2
+  ad=600 pd=260 as=0 ps=0
M1005 Y C a_23_n81# Gnd nfet w=60 l=2
+  ad=300 pd=130 as=0 ps=0
C0 vdd A 0.02fF
C1 vdd Y 2.69fF
C2 B Y 0.19fF
C3 a_23_n81# a_7_n81# 0.62fF
C4 B a_7_n81# 0.10fF
C5 gnd a_7_n81# 0.62fF
C6 w_n6_n6# C 0.06fF
C7 w_n6_n6# A 0.06fF
C8 w_n6_n6# Y 0.22fF
C9 w_n6_n6# vdd 0.25fF
C10 w_n6_n6# B 0.06fF
C11 Y C 0.24fF
C12 Y A 0.05fF
C13 a_23_n81# C 0.10fF
C14 Y a_23_n81# 0.62fF
C15 a_23_n81# Gnd 0.14fF
C16 a_7_n81# Gnd 0.14fF
C17 gnd Gnd 0.10fF
C18 Y Gnd 0.20fF
C19 vdd Gnd 0.08fF
C20 C Gnd 0.17fF
C21 B Gnd 0.17fF
C22 A Gnd 0.17fF
C23 w_n6_n6# Gnd 3.49fF
.ends

.subckt nor_4_cmos Y gnd A vdd B C D
M1000 Y D gnd Gnd nfet w=20 l=2
+  ad=400 pd=200 as=400 ps=200
M1001 a_7_0# A vdd w_n6_n6# pfet w=200 l=2
+  ad=2000 pd=820 as=1000 ps=410
M1002 a_39_0# C a_23_0# w_n6_n6# pfet w=200 l=2
+  ad=2000 pd=820 as=2000 ps=820
M1003 a_23_0# B a_7_0# w_n6_n6# pfet w=200 l=2
+  ad=0 pd=0 as=0 ps=0
M1004 Y A gnd Gnd nfet w=20 l=2
+  ad=0 pd=0 as=0 ps=0
M1005 Y B gnd Gnd nfet w=20 l=2
+  ad=0 pd=0 as=0 ps=0
M1006 Y C gnd Gnd nfet w=20 l=2
+  ad=0 pd=0 as=0 ps=0
M1007 Y D a_39_0# w_n6_n6# pfet w=200 l=2
+  ad=1000 pd=410 as=0 ps=0
C0 Y A 0.05fF
C1 w_n6_n6# A 0.06fF
C2 a_39_0# a_23_0# 2.06fF
C3 a_39_0# Y 2.06fF
C4 a_39_0# w_n6_n6# 0.42fF
C5 Y gnd 1.71fF
C6 a_23_0# a_7_0# 2.06fF
C7 B Y 0.19fF
C8 B w_n6_n6# 0.06fF
C9 D Y 0.24fF
C10 w_n6_n6# a_7_0# 0.42fF
C11 gnd A 0.05fF
C12 D w_n6_n6# 0.06fF
C13 Y C 0.19fF
C14 w_n6_n6# C 0.06fF
C15 vdd w_n6_n6# 0.22fF
C16 vdd a_7_0# 2.06fF
C17 w_n6_n6# a_23_0# 0.42fF
C18 Y w_n6_n6# 0.22fF
C19 gnd Gnd 0.32fF
C20 Y Gnd 0.30fF
C21 a_39_0# Gnd 0.00fF
C22 a_23_0# Gnd 0.00fF
C23 a_7_0# Gnd 0.00fF
C24 vdd Gnd 0.01fF
C25 D Gnd 0.17fF
C26 C Gnd 0.17fF
C27 B Gnd 0.17fF
C28 A Gnd 0.17fF
C29 w_n6_n6# Gnd 15.33fF
.ends

.subckt nand_cmos w_n6_n6# a_7_n61# Y gnd A vdd B
M1000 a_7_n61# A gnd Gnd nfet w=40 l=2
+  ad=400 pd=180 as=200 ps=90
M1001 Y B a_7_n61# Gnd nfet w=40 l=2
+  ad=200 pd=90 as=0 ps=0
M1002 Y A vdd w_n6_n6# pfet w=50 l=2
+  ad=500 pd=220 as=500 ps=220
M1003 Y B vdd w_n6_n6# pfet w=50 l=2
+  ad=0 pd=0 as=0 ps=0
C0 w_n6_n6# A 0.06fF
C1 gnd a_7_n61# 0.41fF
C2 Y A 0.05fF
C3 w_n6_n6# Y 0.15fF
C4 w_n6_n6# B 0.06fF
C5 Y B 0.24fF
C6 Y a_7_n61# 0.41fF
C7 B a_7_n61# 0.05fF
C8 vdd A 0.02fF
C9 w_n6_n6# vdd 0.16fF
C10 Y vdd 1.60fF
C11 a_7_n61# Gnd 0.10fF
C12 gnd Gnd 0.07fF
C13 Y Gnd 0.14fF
C14 vdd Gnd 0.05fF
C15 B Gnd 0.17fF
C16 A Gnd 0.17fF
C17 w_n6_n6# Gnd 2.55fF
.ends

.subckt nor_cmos w_n6_n6# Y a_7_0# gnd A vdd B
M1000 a_7_0# A vdd w_n6_n6# pfet w=100 l=2
+  ad=1000 pd=420 as=500 ps=210
M1001 Y B a_7_0# w_n6_n6# pfet w=100 l=2
+  ad=500 pd=210 as=0 ps=0
M1002 Y A gnd Gnd nfet w=20 l=2
+  ad=200 pd=100 as=200 ps=100
M1003 Y B gnd Gnd nfet w=20 l=2
+  ad=0 pd=0 as=0 ps=0
C0 w_n6_n6# A 0.06fF
C1 B w_n6_n6# 0.06fF
C2 a_7_0# w_n6_n6# 0.22fF
C3 gnd A 0.05fF
C4 w_n6_n6# vdd 0.12fF
C5 Y w_n6_n6# 0.12fF
C6 Y A 0.05fF
C7 a_7_0# B 0.02fF
C8 Y B 0.24fF
C9 a_7_0# vdd 1.03fF
C10 Y gnd 0.71fF
C11 Y a_7_0# 1.03fF
C12 gnd Gnd 0.15fF
C13 Y Gnd 0.15fF
C14 a_7_0# Gnd 0.00fF
C15 vdd Gnd 0.01fF
C16 B Gnd 0.17fF
C17 A Gnd 0.17fF
C18 w_n6_n6# Gnd 4.50fF
.ends

.subckt nand_4_cmos w_n6_n6# a_7_n101# a_7_0# gnd A vdd a_39_n101# B a_23_n101# C
+ D
M1000 a_7_0# D a_39_n101# Gnd nfet w=80 l=2
+  ad=400 pd=170 as=800 ps=340
M1001 a_7_0# A vdd w_n6_n6# pfet w=50 l=2
+  ad=1000 pd=440 as=1000 ps=440
M1002 a_7_0# C vdd w_n6_n6# pfet w=50 l=2
+  ad=0 pd=0 as=0 ps=0
M1003 a_7_0# B vdd w_n6_n6# pfet w=50 l=2
+  ad=0 pd=0 as=0 ps=0
M1004 a_7_n101# A gnd Gnd nfet w=80 l=2
+  ad=800 pd=340 as=400 ps=170
M1005 a_39_n101# C a_23_n101# Gnd nfet w=80 l=2
+  ad=0 pd=0 as=800 ps=340
M1006 a_23_n101# B a_7_n101# Gnd nfet w=80 l=2
+  ad=0 pd=0 as=0 ps=0
M1007 a_7_0# D vdd w_n6_n6# pfet w=50 l=2
+  ad=0 pd=0 as=0 ps=0
C0 a_7_n101# a_23_n101# 0.82fF
C1 w_n6_n6# A 0.06fF
C2 vdd a_7_0# 3.78fF
C3 C a_7_0# 0.19fF
C4 a_7_n101# gnd 0.82fF
C5 w_n6_n6# D 0.06fF
C6 B a_7_n101# 0.10fF
C7 A a_7_0# 0.05fF
C8 a_39_n101# a_23_n101# 0.82fF
C9 w_n6_n6# B 0.06fF
C10 w_n6_n6# a_7_0# 0.29fF
C11 D a_39_n101# 0.10fF
C12 D a_7_0# 0.24fF
C13 B a_7_0# 0.19fF
C14 a_39_n101# a_7_0# 0.82fF
C15 A vdd 0.02fF
C16 C a_23_n101# 0.10fF
C17 w_n6_n6# vdd 0.34fF
C18 w_n6_n6# C 0.06fF
C19 a_39_n101# Gnd 0.18fF
C20 a_23_n101# Gnd 0.18fF
C21 a_7_n101# Gnd 0.18fF
C22 gnd Gnd 0.12fF
C23 a_7_0# Gnd 0.02fF
C24 vdd Gnd 0.03fF
C25 D Gnd 0.17fF
C26 C Gnd 0.15fF
C27 B Gnd 0.15fF
C28 A Gnd -0.00fF
C29 w_n6_n6# Gnd 4.48fF
.ends

.subckt nor_5_cmos a_23_0# w_n6_n6# Y a_7_0# A vdd B C D a_39_0# E a_55_0#
M1000 a_7_0# A vdd w_n6_n6# pfet w=250 l=2
+  ad=2500 pd=1020 as=1250 ps=510
M1001 a_39_0# C a_23_0# w_n6_n6# pfet w=250 l=2
+  ad=2500 pd=1020 as=2500 ps=1020
M1002 a_23_0# B a_7_0# w_n6_n6# pfet w=250 l=2
+  ad=0 pd=0 as=0 ps=0
M1003 Y D gnd Gnd nfet w=20 l=2
+  ad=500 pd=250 as=500 ps=250
M1004 Y E gnd Gnd nfet w=20 l=2
+  ad=0 pd=0 as=0 ps=0
M1005 Y A gnd Gnd nfet w=20 l=2
+  ad=0 pd=0 as=0 ps=0
M1006 Y E a_55_0# w_n6_n6# pfet w=250 l=2
+  ad=1250 pd=510 as=2500 ps=1020
M1007 Y B gnd Gnd nfet w=20 l=2
+  ad=0 pd=0 as=0 ps=0
M1008 a_55_0# D a_39_0# w_n6_n6# pfet w=250 l=2
+  ad=0 pd=0 as=0 ps=0
M1009 Y C gnd Gnd nfet w=20 l=2
+  ad=0 pd=0 as=0 ps=0
C0 w_n6_n6# A 0.06fF
C1 a_23_0# a_7_0# 2.58fF
C2 a_23_0# a_39_0# 2.58fF
C3 Y a_55_0# 2.58fF
C4 a_23_0# w_n6_n6# 0.52fF
C5 Y B 0.19fF
C6 Y D 0.19fF
C7 gnd A 0.05fF
C8 B a_7_0# 0.02fF
C9 a_39_0# a_55_0# 2.58fF
C10 a_7_0# vdd 2.58fF
C11 a_55_0# w_n6_n6# 0.52fF
C12 B w_n6_n6# 0.06fF
C13 Y C 0.19fF
C14 D a_39_0# 0.02fF
C15 w_n6_n6# vdd 0.27fF
C16 D w_n6_n6# 0.06fF
C17 E Y 0.24fF
C18 w_n6_n6# C 0.06fF
C19 E w_n6_n6# 0.06fF
C20 a_23_0# C 0.02fF
C21 Y w_n6_n6# 0.27fF
C22 Y A 0.05fF
C23 E a_55_0# 0.02fF
C24 w_n6_n6# a_7_0# 0.52fF
C25 a_39_0# w_n6_n6# 0.52fF
C26 gnd Y 2.21fF
C27 gnd Gnd 0.41fF
C28 Y Gnd 0.38fF
C29 a_55_0# Gnd -0.00fF
C30 a_39_0# Gnd -0.00fF
C31 a_23_0# Gnd -0.00fF
C32 a_7_0# Gnd -0.00fF
C33 vdd Gnd 0.01fF
C34 E Gnd 0.17fF
C35 D Gnd 0.17fF
C36 C Gnd 0.17fF
C37 B Gnd 0.17fF
C38 A Gnd 0.17fF
C39 w_n6_n6# Gnd 23.16fF
.ends

.subckt nand_5_cmos a_7_n121# w_n6_n6# a_55_n121# Y gnd a_39_n121# a_23_n121# A vdd
+ B C D E
M1000 Y A vdd w_n6_n6# pfet w=50 l=2
+  ad=1250 pd=550 as=1250 ps=550
M1001 Y C vdd w_n6_n6# pfet w=50 l=2
+  ad=0 pd=0 as=0 ps=0
M1002 Y B vdd w_n6_n6# pfet w=50 l=2
+  ad=0 pd=0 as=0 ps=0
M1003 Y E a_55_n121# Gnd nfet w=100 l=2
+  ad=500 pd=210 as=1000 ps=420
M1004 a_55_n121# D a_39_n121# Gnd nfet w=100 l=2
+  ad=0 pd=0 as=1000 ps=420
M1005 Y E vdd w_n6_n6# pfet w=50 l=2
+  ad=0 pd=0 as=0 ps=0
M1006 Y D vdd w_n6_n6# pfet w=50 l=2
+  ad=0 pd=0 as=0 ps=0
M1007 a_7_n121# A gnd Gnd nfet w=100 l=2
+  ad=1000 pd=420 as=500 ps=210
M1008 a_39_n121# C a_23_n121# Gnd nfet w=100 l=2
+  ad=0 pd=0 as=1000 ps=420
M1009 a_23_n121# B a_7_n121# Gnd nfet w=100 l=2
+  ad=0 pd=0 as=0 ps=0
C0 gnd a_7_n121# 1.03fF
C1 w_n6_n6# A 0.06fF
C2 a_55_n121# E 0.10fF
C3 C a_23_n121# 0.10fF
C4 A Y 0.05fF
C5 w_n6_n6# Y 0.37fF
C6 w_n6_n6# D 0.06fF
C7 A vdd 0.02fF
C8 B a_7_n121# 0.10fF
C9 D Y 0.19fF
C10 a_23_n121# a_7_n121# 1.03fF
C11 w_n6_n6# B 0.06fF
C12 w_n6_n6# vdd 0.42fF
C13 B Y 0.19fF
C14 vdd Y 4.87fF
C15 a_55_n121# Y 1.03fF
C16 D a_39_n121# 0.10fF
C17 w_n6_n6# E 0.06fF
C18 a_23_n121# a_39_n121# 1.03fF
C19 w_n6_n6# C 0.06fF
C20 a_55_n121# a_39_n121# 1.03fF
C21 E Y 0.24fF
C22 C Y 0.19fF
C23 a_55_n121# Gnd 0.22fF
C24 a_39_n121# Gnd 0.22fF
C25 a_23_n121# Gnd 0.22fF
C26 a_7_n121# Gnd 0.22fF
C27 gnd Gnd 0.14fF
C28 Y Gnd 0.28fF
C29 vdd Gnd 0.14fF
C30 E Gnd 0.13fF
C31 D Gnd 0.13fF
C32 C Gnd 0.13fF
C33 B Gnd 0.13fF
C34 A Gnd 0.13fF
C35 w_n6_n6# Gnd 5.48fF
.ends

.subckt cla_gen_cmos_unrouted m inv_cmos_9/w_0_0# h inv_cmos_6/gnd nand_3_cmos_1/a_7_n81#
+ nand_cmos_1/vdd nor_3_cmos_0/vdd inv_cmos_3/vdd nand_cmos_0/a_7_n61# inv_cmos_9/gnd
+ nand_5_cmos_0/a_55_n121# inv_cmos_6/vdd nand_cmos_3/a_7_n61# P3 nand_cmos_2/Y inv_cmos_9/vdd
+ nor_cmos_0/gnd nand_cmos_0/gnd inv_cmos_2/w_0_0# nor_3_cmos_0/a_7_0# inv_cmos_1/IN
+ inv_cmos_2/gnd nand_4_cmos_1/a_39_n101# nand_4_cmos_1/a_23_n101# inv_cmos_4/IN nand_cmos_0/Y
+ nand_cmos_3/gnd nand_3_cmos_0/a_7_n81# nand_3_cmos_2/vdd inv_cmos_7/IN inv_cmos_5/gnd
+ nand_4_cmos_0/a_39_n101# nor_cmos_0/vdd nand_cmos_0/vdd nand_4_cmos_1/a_7_n101#
+ inv_cmos_2/vdd inv_cmos_8/w_0_0# nand_4_cmos_0/a_23_n101# j inv_cmos_2/IN inv_cmos_8/gnd
+ inv_cmos_1/w_0_0# nand_4_cmos_1/gnd nand_cmos_3/vdd inv_cmos_5/vdd nand_cmos_2/a_7_n61#
+ nand_3_cmos_1/gnd inv_cmos_8/vdd nor_cmos_0/w_n6_n6# nand_4_cmos_1/vdd inv_cmos_1/gnd
+ nor_3_cmos_0/a_23_0# nand_4_cmos_0/a_7_n101# nor_3_cmos_0/w_n6_n6# nand_cmos_2/gnd
+ inv_cmos_6/w_0_0# inv_cmos_0/w_0_0# nand_3_cmos_1/vdd nand_5_cmos_0/a_39_n121# inv_cmos_7/w_0_0#
+ inv_cmos_4/gnd nand_5_cmos_0/gnd nand_cmos_3/Y nand_5_cmos_0/a_23_n121# inv_cmos_1/vdd
+ nand_3_cmos_1/a_23_n81# i inv_cmos_7/gnd nand_4_cmos_0/gnd nand_cmos_2/vdd nand_5_cmos_0/vdd
+ inv_cmos_4/vdd nand_cmos_1/Y nand_cmos_1/a_7_n61# k inv_cmos_0/IN nor_4_cmos_0/gnd
+ nand_3_cmos_0/gnd inv_cmos_11/gnd inv_cmos_7/vdd nand_4_cmos_0/vdd nor_5_cmos_0/vdd
+ inv_cmos_0/gnd inv_cmos_5/IN nand_5_cmos_0/a_7_n121# nor_3_cmos_0/gnd nand_cmos_1/gnd
+ inv_cmos_5/w_0_0# nor_4_cmos_0/vdd nand_3_cmos_0/vdd inv_cmos_11/vdd inv_cmos_3/gnd
+ inv_cmos_0/vdd nor_5_cmos_0/w_n6_n6# l
Xinv_cmos_3 nand_cmos_0/Y inv_cmos_3/w_0_0# inv_cmos_3/gnd inv_cmos_3/vdd d inv_cmos
Xinv_cmos_4 inv_cmos_4/IN inv_cmos_4/w_0_0# inv_cmos_4/gnd inv_cmos_4/vdd e inv_cmos
Xinv_cmos_6 nand_cmos_1/Y inv_cmos_6/w_0_0# inv_cmos_6/gnd inv_cmos_6/vdd g inv_cmos
Xinv_cmos_5 inv_cmos_5/IN inv_cmos_5/w_0_0# inv_cmos_5/gnd inv_cmos_5/vdd f inv_cmos
Xinv_cmos_7 inv_cmos_7/IN inv_cmos_7/w_0_0# inv_cmos_7/gnd inv_cmos_7/vdd h inv_cmos
Xnor_3_cmos_0 nor_3_cmos_0/a_23_0# nor_3_cmos_0/w_n6_n6# m nor_3_cmos_0/a_7_0# nor_3_cmos_0/gnd
+ h nor_3_cmos_0/vdd i G1 nor_3_cmos
Xinv_cmos_8 nand_cmos_2/Y inv_cmos_8/w_0_0# inv_cmos_8/gnd inv_cmos_8/vdd i inv_cmos
Xinv_cmos_9 nand_cmos_3/Y inv_cmos_9/w_0_0# inv_cmos_9/gnd inv_cmos_9/vdd j inv_cmos
Xnand_3_cmos_0 inv_cmos_2/w_0_0# nand_3_cmos_0/a_7_n81# inv_cmos_2/IN nand_3_cmos_0/gnd
+ P3 nand_3_cmos_0/vdd P2 G1 nand_3_cmos_0/a_23_n81# nand_3_cmos
Xnor_4_cmos_0 l nor_4_cmos_0/gnd e nor_4_cmos_0/vdd f g G2 nor_4_cmos
Xnand_3_cmos_1 inv_cmos_5/w_0_0# nand_3_cmos_1/a_7_n81# inv_cmos_5/IN nand_3_cmos_1/gnd
+ P2 nand_3_cmos_1/vdd P1 G0 nand_3_cmos_1/a_23_n81# nand_3_cmos
Xnand_3_cmos_2 inv_cmos_7/w_0_0# nand_3_cmos_2/a_7_n81# inv_cmos_7/IN nand_5_cmos_0/gnd
+ P1 nand_3_cmos_2/vdd P0 C0 nand_3_cmos_2/a_23_n81# nand_3_cmos
Xnand_cmos_1 inv_cmos_6/w_0_0# nand_cmos_1/a_7_n61# nand_cmos_1/Y nand_cmos_1/gnd
+ P2 nand_cmos_1/vdd G1 nand_cmos
Xnand_cmos_0 inv_cmos_3/w_0_0# nand_cmos_0/a_7_n61# nand_cmos_0/Y nand_cmos_0/gnd
+ P3 nand_cmos_0/vdd G2 nand_cmos
Xnand_cmos_2 inv_cmos_8/w_0_0# nand_cmos_2/a_7_n61# nand_cmos_2/Y nand_cmos_2/gnd
+ P1 nand_cmos_2/vdd G0 nand_cmos
Xinv_cmos_11 l inv_cmos_11/w_0_0# inv_cmos_11/gnd inv_cmos_11/vdd C3 inv_cmos
Xinv_cmos_10 k inv_cmos_10/w_0_0# inv_cmos_10/gnd inv_cmos_10/vdd C4 inv_cmos
Xnor_cmos_0 nor_cmos_0/w_n6_n6# n nor_cmos_0/a_7_0# nor_cmos_0/gnd j nor_cmos_0/vdd
+ G0 nor_cmos
Xnand_4_cmos_0 inv_cmos_1/w_0_0# nand_4_cmos_0/a_7_n101# inv_cmos_1/IN nand_4_cmos_0/gnd
+ P3 nand_4_cmos_0/vdd nand_4_cmos_0/a_39_n101# P2 nand_4_cmos_0/a_23_n101# P1 G0
+ nand_4_cmos
Xnand_cmos_3 inv_cmos_9/w_0_0# nand_cmos_3/a_7_n61# nand_cmos_3/Y nand_cmos_3/gnd
+ P0 nand_cmos_3/vdd C0 nand_cmos
Xnand_4_cmos_1 inv_cmos_4/w_0_0# nand_4_cmos_1/a_7_n101# inv_cmos_4/IN nand_4_cmos_1/gnd
+ P2 nand_4_cmos_1/vdd nand_4_cmos_1/a_39_n101# P1 nand_4_cmos_1/a_23_n101# P0 C0
+ nand_4_cmos
Xinv_cmos_12 m inv_cmos_12/w_0_0# inv_cmos_12/gnd inv_cmos_12/vdd C2 inv_cmos
Xnor_5_cmos_0 nor_5_cmos_0/a_23_0# nor_5_cmos_0/w_n6_n6# k nor_5_cmos_0/a_7_0# a nor_5_cmos_0/vdd
+ b c d nor_5_cmos_0/a_39_0# G3 nor_5_cmos_0/a_55_0# nor_5_cmos
Xinv_cmos_13 n inv_cmos_13/w_0_0# inv_cmos_13/gnd inv_cmos_13/vdd C1 inv_cmos
Xnand_5_cmos_0 nand_5_cmos_0/a_7_n121# inv_cmos_0/w_0_0# nand_5_cmos_0/a_55_n121#
+ inv_cmos_0/IN nand_5_cmos_0/gnd nand_5_cmos_0/a_39_n121# nand_5_cmos_0/a_23_n121#
+ P3 nand_5_cmos_0/vdd P2 P1 P0 C0 nand_5_cmos
Xinv_cmos_0 inv_cmos_0/IN inv_cmos_0/w_0_0# inv_cmos_0/gnd inv_cmos_0/vdd a inv_cmos
Xinv_cmos_1 inv_cmos_1/IN inv_cmos_1/w_0_0# inv_cmos_1/gnd inv_cmos_1/vdd b inv_cmos
Xinv_cmos_2 inv_cmos_2/IN inv_cmos_2/w_0_0# inv_cmos_2/gnd inv_cmos_2/vdd c inv_cmos
C0 nor_3_cmos_0/gnd nand_3_cmos_0/a_23_n81# 0.05fF
C1 nand_cmos_3/a_7_n61# C0 0.05fF
C2 inv_cmos_1/IN P1 0.05fF
C3 b c 0.04fF
C4 nor_5_cmos_0/a_39_0# d 0.02fF
C5 inv_cmos_2/IN inv_cmos_2/w_0_0# 0.00fF
C6 inv_cmos_5/IN G0 0.05fF
C7 nand_3_cmos_1/a_23_n81# G0 0.05fF
C8 inv_cmos_0/vdd inv_cmos_0/IN 0.52fF
C9 k G3 0.05fF
C10 i m 0.05fF
C11 P3 b 0.02fF
C12 inv_cmos_7/vdd inv_cmos_7/IN 0.52fF
C13 f l 0.05fF
C14 nor_5_cmos_0/w_n6_n6# nor_5_cmos_0/vdd -0.00fF
C15 nand_5_cmos_0/a_55_n121# C0 0.05fF
C16 C4 m 0.02fF
C17 inv_cmos_1/gnd inv_cmos_1/IN 0.30fF
C18 P2 nand_4_cmos_0/a_7_n101# 0.05fF
C19 inv_cmos_0/IN P1 0.05fF
C20 P1 nand_4_cmos_1/a_7_n101# 0.05fF
C21 inv_cmos_2/IN inv_cmos_2/gnd 0.30fF
C22 nand_3_cmos_2/a_7_n81# P0 0.07fF
C23 nand_cmos_2/a_7_n61# G0 0.05fF
C24 inv_cmos_1/vdd inv_cmos_1/IN 0.52fF
C25 i nor_3_cmos_0/a_7_0# 0.02fF
C26 C0 nand_cmos_3/Y 0.05fF
C27 nor_5_cmos_0/a_23_0# c 0.02fF
C28 inv_cmos_4/vdd inv_cmos_4/IN 0.52fF
C29 P1 inv_cmos_5/IN 0.05fF
C30 inv_cmos_5/vdd nand_4_cmos_0/vdd 0.04fF
C31 inv_cmos_4/gnd inv_cmos_4/IN 0.30fF
C32 nand_4_cmos_0/a_23_n101# P1 0.05fF
C33 G0 nand_cmos_2/Y 0.05fF
C34 nand_3_cmos_2/a_23_n81# C0 0.07fF
C35 P2 inv_cmos_1/IN 0.05fF
C36 nand_4_cmos_0/vdd nand_3_cmos_1/vdd 0.21fF
C37 inv_cmos_9/gnd nand_cmos_3/Y 0.30fF
C38 G1 m 0.05fF
C39 k c 0.05fF
C40 inv_cmos_2/IN inv_cmos_2/vdd 0.52fF
C41 inv_cmos_3/vdd nand_cmos_0/Y 0.52fF
C42 P0 inv_cmos_7/IN 0.05fF
C43 G2 g 0.04fF
C44 nand_cmos_1/Y G1 0.05fF
C45 inv_cmos_3/gnd nand_cmos_0/Y 0.30fF
C46 inv_cmos_8/w_0_0# nand_cmos_2/Y -0.00fF
C47 b nor_5_cmos_0/a_7_0# 0.02fF
C48 G1 nor_3_cmos_0/a_23_0# 0.02fF
C49 inv_cmos_8/vdd nand_cmos_2/Y 0.52fF
C50 G2 nand_cmos_0/a_7_n61# 0.04fF
C51 P2 G1 0.04fF
C52 P1 inv_cmos_4/IN 0.05fF
C53 nor_3_cmos_0/gnd nand_3_cmos_0/a_7_n81# 0.01fF
C54 C0 inv_cmos_7/IN 0.05fF
C55 inv_cmos_0/IN inv_cmos_0/gnd 0.30fF
C56 d G3 0.04fF
C57 inv_cmos_0/IN P0 0.05fF
C58 P2 inv_cmos_0/IN 0.05fF
C59 P2 e 0.02fF
C60 C2 n 0.02fF
C61 P2 f 0.02fF
C62 nand_cmos_1/Y inv_cmos_6/vdd 0.52fF
C63 P0 P1 0.08fF
C64 P2 P1 0.08fF
C65 P2 nand_3_cmos_0/a_7_n81# 0.05fF
C66 P3 c 0.02fF
C67 G0 n 0.05fF
C68 inv_cmos_2/IN G1 0.05fF
C69 inv_cmos_0/IN C0 0.05fF
C70 nand_5_cmos_0/vdd inv_cmos_4/vdd 0.04fF
C71 nand_cmos_1/Y inv_cmos_6/gnd 0.30fF
C72 inv_cmos_5/w_0_0# inv_cmos_5/IN 0.00fF
C73 inv_cmos_7/IN inv_cmos_7/w_0_0# -0.00fF
C74 nand_5_cmos_0/a_39_n121# P0 0.05fF
C75 nand_3_cmos_0/vdd nor_4_cmos_0/vdd 0.04fF
C76 k d 0.05fF
C77 nor_5_cmos_0/a_55_0# G3 0.02fF
C78 inv_cmos_1/IN inv_cmos_1/w_0_0# 0.00fF
C79 G2 nand_cmos_0/Y 0.05fF
C80 G2 l 0.05fF
C81 nand_5_cmos_0/a_7_n121# P2 0.05fF
C82 inv_cmos_5/gnd inv_cmos_5/IN 0.30fF
C83 G1 nand_3_cmos_0/a_23_n81# 0.05fF
C84 P1 nand_3_cmos_1/a_7_n81# 0.05fF
C85 P3 a 0.02fF
C86 inv_cmos_1/vdd nand_cmos_1/vdd 0.04fF
C87 P0 inv_cmos_4/IN 0.05fF
C88 d c 0.04fF
C89 inv_cmos_1/IN G0 0.05fF
C90 g l 0.05fF
C91 inv_cmos_4/w_0_0# inv_cmos_4/IN 0.00fF
C92 i G1 0.04fF
C93 C0 nand_4_cmos_1/a_39_n101# 0.05fF
C94 nand_4_cmos_0/a_39_n101# G0 0.05fF
C95 f g 0.04fF
C96 C0 inv_cmos_4/IN 0.05fF
C97 nor_cmos_0/a_7_0# G0 0.02fF
C98 nand_3_cmos_0/vdd inv_cmos_6/vdd 0.04fF
C99 nand_5_cmos_0/vdd nand_4_cmos_1/vdd 0.54fF
C100 inv_cmos_7/gnd inv_cmos_7/IN 0.30fF
C101 nand_5_cmos_0/a_23_n121# P1 0.05fF
C102 inv_cmos_2/IN nor_3_cmos_0/gnd 0.02fF
C103 inv_cmos_5/vdd inv_cmos_5/IN 0.52fF
C104 nand_cmos_3/Y inv_cmos_9/vdd 0.52fF
C105 k b 0.05fF
C106 P0 C0 0.12fF
C107 P0 nand_4_cmos_1/a_23_n101# 0.05fF
C108 inv_cmos_8/gnd nand_cmos_2/Y 0.30fF
C109 G1 nand_cmos_1/a_7_n61# 0.04fF
C110 P1 G0 0.08fF
C111 inv_cmos_2/IN P2 0.05fF
C112 inv_cmos_0/IN Gnd 0.01fF
C113 P2 Gnd 0.02fF
C114 P3 Gnd 0.06fF
C115 C1 Gnd 0.02fF
C116 n Gnd 0.00fF
C117 k Gnd 0.04fF
C118 G3 Gnd -0.01fF
C119 d Gnd -0.01fF
C120 c Gnd 0.04fF
C121 b Gnd -0.06fF
C122 a Gnd 0.02fF
C123 C2 Gnd 0.02fF
C124 nand_cmos_3/Y Gnd 0.00fF
C125 inv_cmos_1/IN Gnd 0.01fF
C126 C4 Gnd 0.02fF
C127 C3 Gnd 0.02fF
C128 nand_cmos_2/Y Gnd 0.01fF
C129 G0 Gnd -0.04fF
C130 G2 Gnd 0.00fF
C131 nand_cmos_1/Y Gnd -0.02fF
C132 inv_cmos_7/IN Gnd 0.01fF
C133 C0 Gnd -0.01fF
C134 P0 Gnd 0.05fF
C135 P1 Gnd 0.13fF
C136 inv_cmos_5/IN Gnd 0.01fF
C137 l Gnd 0.04fF
C138 inv_cmos_2/IN Gnd 0.01fF
C139 j Gnd 0.04fF
C140 i Gnd 0.04fF
C141 m Gnd 0.04fF
C142 G1 Gnd 0.06fF
C143 h Gnd 0.04fF
C144 f Gnd 0.04fF
C145 g Gnd 0.04fF
C146 e Gnd 0.04fF
C147 inv_cmos_4/IN Gnd 0.01fF
C148 nand_cmos_0/Y Gnd 0.01fF
.ends

.subckt xor_optimized inv_cmos_0/OUT Y w_26_37# A B inv_cmos_0/gnd inv_cmos_0/vdd
Xinv_cmos_0 B w_26_37# inv_cmos_0/gnd inv_cmos_0/vdd inv_cmos_0/OUT inv_cmos
M1000 Y A inv_cmos_0/OUT Gnd nfet w=20 l=2
+  ad=100 pd=50 as=100 ps=50
M1001 Y A B w_26_37# pfet w=50 l=2
+  ad=250 pd=110 as=320 ps=110
C0 B Y 0.56fF
C1 inv_cmos_0/OUT Y 0.28fF
C2 A B 0.05fF
C3 w_26_37# Y 0.07fF
C4 w_26_37# A 0.10fF
C5 B inv_cmos_0/OUT 0.70fF
C6 w_26_37# B 0.28fF
C7 Y Gnd 0.05fF
C8 A Gnd 0.01fF
C9 inv_cmos_0/OUT Gnd 0.06fF
C10 B Gnd 0.32fF
C11 w_26_37# Gnd 1.12fF
.ends

.subckt pg_gen_optimized_unrouted inv_cmos_3/w_0_0# inv_cmos_1/vdd nand_cmos_0/a_7_n61#
+ P1 xor_optimized_2/inv_cmos_0/OUT G3 xor_optimized_0/inv_cmos_0/gnd P2 xor_optimized_1/inv_cmos_0/OUT
+ nand_cmos_2/Y nand_cmos_3/a_7_n61# P3 xor_optimized_1/w_26_37# nand_cmos_0/gnd G0
+ inv_cmos_2/gnd nand_cmos_0/Y inv_cmos_0/vdd inv_cmos_2/w_0_0# nand_cmos_3/gnd xor_optimized_3/inv_cmos_0/gnd
+ G1 inv_cmos_3/vdd G2 xor_optimized_0/inv_cmos_0/OUT nand_cmos_2/a_7_n61# A0 B1 B0
+ xor_optimized_0/w_26_37# A1 B2 inv_cmos_1/gnd A2 B3 inv_cmos_1/w_0_0# nand_cmos_2/gnd
+ A3 xor_optimized_3/w_26_37# xor_optimized_2/inv_cmos_0/gnd nand_cmos_3/Y inv_cmos_2/vdd
+ nand_cmos_1/Y nand_cmos_1/a_7_n61# inv_cmos_0/gnd xor_optimized_1/inv_cmos_0/gnd
+ inv_cmos_0/w_0_0# nand_cmos_1/gnd xor_optimized_2/w_26_37# inv_cmos_3/gnd
Xinv_cmos_3 nand_cmos_3/Y inv_cmos_3/w_0_0# inv_cmos_3/gnd inv_cmos_3/vdd G0 inv_cmos
Xnand_cmos_1 inv_cmos_1/w_0_0# nand_cmos_1/a_7_n61# nand_cmos_1/Y nand_cmos_1/gnd
+ B2 inv_cmos_1/vdd A2 nand_cmos
Xnand_cmos_0 inv_cmos_0/w_0_0# nand_cmos_0/a_7_n61# nand_cmos_0/Y nand_cmos_0/gnd
+ B3 inv_cmos_0/vdd A3 nand_cmos
Xnand_cmos_2 inv_cmos_2/w_0_0# nand_cmos_2/a_7_n61# nand_cmos_2/Y nand_cmos_2/gnd
+ B1 inv_cmos_2/vdd A1 nand_cmos
Xnand_cmos_3 inv_cmos_3/w_0_0# nand_cmos_3/a_7_n61# nand_cmos_3/Y nand_cmos_3/gnd
+ B0 inv_cmos_3/vdd A0 nand_cmos
Xxor_optimized_0 xor_optimized_0/inv_cmos_0/OUT P3 xor_optimized_0/w_26_37# A3 B3
+ xor_optimized_0/inv_cmos_0/gnd inv_cmos_0/vdd xor_optimized
Xxor_optimized_1 xor_optimized_1/inv_cmos_0/OUT P2 xor_optimized_1/w_26_37# A2 B2
+ xor_optimized_1/inv_cmos_0/gnd inv_cmos_1/vdd xor_optimized
Xxor_optimized_2 xor_optimized_2/inv_cmos_0/OUT P1 xor_optimized_2/w_26_37# A1 B1
+ xor_optimized_2/inv_cmos_0/gnd inv_cmos_2/vdd xor_optimized
Xxor_optimized_3 xor_optimized_3/inv_cmos_0/OUT P0 xor_optimized_3/w_26_37# A0 B0
+ xor_optimized_3/inv_cmos_0/gnd inv_cmos_3/vdd xor_optimized
Xinv_cmos_0 nand_cmos_0/Y inv_cmos_0/w_0_0# inv_cmos_0/gnd inv_cmos_0/vdd G3 inv_cmos
Xinv_cmos_1 nand_cmos_1/Y inv_cmos_1/w_0_0# inv_cmos_1/gnd inv_cmos_1/vdd G2 inv_cmos
Xinv_cmos_2 nand_cmos_2/Y inv_cmos_2/w_0_0# inv_cmos_2/gnd inv_cmos_2/vdd G1 inv_cmos
C0 G3 B2 0.02fF
C1 nand_cmos_1/a_7_n61# A2 0.04fF
C2 inv_cmos_0/w_0_0# nand_cmos_0/Y -0.00fF
C3 inv_cmos_3/vdd A0 0.16fF
C4 A1 inv_cmos_2/vdd 0.16fF
C5 nand_cmos_1/Y inv_cmos_1/gnd 0.30fF
C6 A3 xor_optimized_0/w_26_37# 0.01fF
C7 inv_cmos_2/vdd nand_cmos_2/Y 0.55fF
C8 inv_cmos_2/vdd inv_cmos_2/w_0_0# 0.01fF
C9 A1 nand_cmos_2/a_7_n61# 0.04fF
C10 inv_cmos_3/vdd nand_cmos_3/Y 0.55fF
C11 nand_cmos_1/Y inv_cmos_1/vdd 0.55fF
C12 nand_cmos_3/Y inv_cmos_3/w_0_0# -0.00fF
C13 nand_cmos_1/Y A2 0.05fF
C14 A3 nand_cmos_0/Y 0.05fF
C15 inv_cmos_0/w_0_0# inv_cmos_0/vdd 0.01fF
C16 nand_cmos_0/Y inv_cmos_0/vdd 0.55fF
C17 nand_cmos_0/Y inv_cmos_0/gnd 0.30fF
C18 inv_cmos_3/gnd nand_cmos_3/Y 0.30fF
C19 B1 G2 0.02fF
C20 A3 nand_cmos_0/a_7_n61# 0.04fF
C21 inv_cmos_2/gnd nand_cmos_2/Y 0.30fF
C22 A0 nand_cmos_3/Y 0.05fF
C23 inv_cmos_1/w_0_0# inv_cmos_1/vdd 0.01fF
C24 A1 nand_cmos_2/Y 0.05fF
C25 nand_cmos_3/a_7_n61# A0 0.04fF
C26 xor_optimized_1/w_26_37# A2 0.01fF
C27 G1 B0 0.02fF
C28 A2 inv_cmos_1/vdd 0.16fF
C29 A3 inv_cmos_0/vdd 0.16fF
C30 inv_cmos_3/vdd inv_cmos_3/w_0_0# 0.01fF
C31 A1 xor_optimized_2/w_26_37# 0.01fF
C32 inv_cmos_2/w_0_0# nand_cmos_2/Y -0.00fF
C33 xor_optimized_3/w_26_37# A0 0.01fF
C34 G1 Gnd 0.02fF
C35 G2 Gnd 0.02fF
C36 G3 Gnd 0.02fF
C37 P0 Gnd 0.02fF
C38 A0 Gnd 0.03fF
C39 B0 Gnd 0.00fF
C40 P1 Gnd 0.02fF
C41 A1 Gnd 0.03fF
C42 B1 Gnd 0.04fF
C43 P2 Gnd 0.02fF
C44 A2 Gnd 0.03fF
C45 B2 Gnd 0.04fF
C46 P3 Gnd 0.02fF
C47 A3 Gnd 0.03fF
C48 inv_cmos_0/vdd Gnd -0.11fF
C49 B3 Gnd 0.04fF
C50 nand_cmos_3/Y Gnd 0.01fF
C51 inv_cmos_3/vdd Gnd -0.31fF
C52 nand_cmos_2/Y Gnd 0.01fF
C53 inv_cmos_2/vdd Gnd -0.11fF
C54 nand_cmos_0/Y Gnd 0.01fF
C55 nand_cmos_1/Y Gnd 0.01fF
C56 inv_cmos_1/vdd Gnd -0.14fF
C57 G0 Gnd 0.02fF
.ends

.subckt sum_gen_optimized_unrouted S0 S2 xor_optimized_0/inv_cmos_0/gnd xor_optimized_3/inv_cmos_0/gnd
+ xor_optimized_0/inv_cmos_0/OUT xor_optimized_2/inv_cmos_0/gnd xor_optimized_1/inv_cmos_0/gnd
+ xor_optimized_2/inv_cmos_0/OUT
Xxor_optimized_0 xor_optimized_0/inv_cmos_0/OUT S2 xor_optimized_0/w_26_37# C2 P2
+ xor_optimized_0/inv_cmos_0/gnd xor_optimized_2/inv_cmos_0/vdd xor_optimized
Xxor_optimized_1 xor_optimized_1/inv_cmos_0/OUT S1 xor_optimized_1/w_26_37# C1 P1
+ xor_optimized_1/inv_cmos_0/gnd xor_optimized_3/inv_cmos_0/vdd xor_optimized
Xxor_optimized_2 xor_optimized_2/inv_cmos_0/OUT S0 xor_optimized_2/w_26_37# C0 P0
+ xor_optimized_2/inv_cmos_0/gnd xor_optimized_2/inv_cmos_0/vdd xor_optimized
Xxor_optimized_3 xor_optimized_3/inv_cmos_0/OUT S3 xor_optimized_3/w_26_37# C3 P3
+ xor_optimized_3/inv_cmos_0/gnd xor_optimized_3/inv_cmos_0/vdd xor_optimized
C0 C3 xor_optimized_3/w_26_37# 0.01fF
C1 C3 C1 0.15fF
C2 C2 C0 0.15fF
C3 xor_optimized_2/w_26_37# C0 0.01fF
C4 xor_optimized_1/w_26_37# C1 0.01fF
C5 P3 S0 0.08fF
C6 C2 xor_optimized_0/w_26_37# 0.01fF
C7 P1 S2 0.08fF
C8 S3 Gnd -0.06fF
C9 C3 Gnd -0.20fF
C10 P3 Gnd 0.02fF
C11 S0 Gnd 0.02fF
C12 C0 Gnd -0.04fF
C13 P0 Gnd 0.02fF
C14 S1 Gnd -0.06fF
C15 C1 Gnd -0.15fF
C16 P1 Gnd 0.02fF
C17 S2 Gnd 0.02fF
C18 C2 Gnd 0.01fF
C19 P2 Gnd 0.02fF
.ends


* Top level circuit full_optimized

Xd_ff_optimized_10 d_ff_optimized_9/vdd d_ff_optimized_10/clk d_ff_optimized_10/inv_cmos_0/OUT
+ d_ff_optimized_10/Q d_ff_optimized_10/inv_cmos_1/IN d_ff_optimized_10/inv_cmos_4/IN
+ d_ff_optimized_10/inv_cmos_4/w_0_0# d_ff_optimized_10/inv_cmos_3/IN d_ff_optimized_9/gnd
+ d_ff_optimized_10/D d_ff_optimized_10/inv_cmos_0/w_0_0# d_ff_optimized
Xd_ff_optimized_11 d_ff_optimized_9/vdd d_ff_optimized_11/clk d_ff_optimized_11/inv_cmos_0/OUT
+ d_ff_optimized_11/Q d_ff_optimized_11/inv_cmos_1/IN d_ff_optimized_11/inv_cmos_4/IN
+ d_ff_optimized_11/inv_cmos_4/w_0_0# d_ff_optimized_11/inv_cmos_3/IN d_ff_optimized_9/gnd
+ d_ff_optimized_11/D d_ff_optimized_11/inv_cmos_0/w_0_0# d_ff_optimized
Xd_ff_optimized_12 d_ff_optimized_9/vdd d_ff_optimized_12/clk d_ff_optimized_12/inv_cmos_0/OUT
+ d_ff_optimized_12/Q d_ff_optimized_12/inv_cmos_1/IN d_ff_optimized_12/inv_cmos_4/IN
+ d_ff_optimized_12/inv_cmos_4/w_0_0# d_ff_optimized_12/inv_cmos_3/IN d_ff_optimized_9/gnd
+ d_ff_optimized_12/D d_ff_optimized_12/inv_cmos_0/w_0_0# d_ff_optimized
Xd_ff_optimized_13 d_ff_optimized_9/vdd d_ff_optimized_13/clk d_ff_optimized_13/inv_cmos_0/OUT
+ d_ff_optimized_13/Q d_ff_optimized_13/inv_cmos_1/IN d_ff_optimized_13/inv_cmos_4/IN
+ d_ff_optimized_13/inv_cmos_4/w_0_0# d_ff_optimized_13/inv_cmos_3/IN d_ff_optimized_9/gnd
+ d_ff_optimized_13/D d_ff_optimized_13/inv_cmos_0/w_0_0# d_ff_optimized
Xcla_gen_cmos_unrouted_0 cla_gen_cmos_unrouted_0/m cla_gen_cmos_unrouted_0/inv_cmos_9/w_0_0#
+ cla_gen_cmos_unrouted_0/h gnd cla_gen_cmos_unrouted_0/nand_3_cmos_1/a_7_n81# vdd
+ cla_gen_cmos_unrouted_0/nor_cmos_0/vdd vdd cla_gen_cmos_unrouted_0/nand_cmos_0/a_7_n61#
+ cla_gen_cmos_unrouted_0/inv_cmos_9/gnd cla_gen_cmos_unrouted_0/nand_5_cmos_0/a_55_n121#
+ vdd cla_gen_cmos_unrouted_0/nand_cmos_3/a_7_n61# cla_gen_cmos_unrouted_0/P3 cla_gen_cmos_unrouted_0/nand_cmos_2/Y
+ cla_gen_cmos_unrouted_0/nor_cmos_0/vdd cla_gen_cmos_unrouted_0/nor_cmos_0/gnd cla_gen_cmos_unrouted_0/nor_cmos_0/gnd
+ cla_gen_cmos_unrouted_0/inv_cmos_2/w_0_0# cla_gen_cmos_unrouted_0/nor_3_cmos_0/a_7_0#
+ cla_gen_cmos_unrouted_0/inv_cmos_1/IN cla_gen_cmos_unrouted_0/nor_cmos_0/gnd cla_gen_cmos_unrouted_0/nand_4_cmos_1/a_39_n101#
+ cla_gen_cmos_unrouted_0/nand_4_cmos_1/a_23_n101# cla_gen_cmos_unrouted_0/inv_cmos_4/IN
+ cla_gen_cmos_unrouted_0/nand_cmos_0/Y cla_gen_cmos_unrouted_0/inv_cmos_9/gnd cla_gen_cmos_unrouted_0/nand_3_cmos_0/a_7_n81#
+ cla_gen_cmos_unrouted_0/nor_cmos_0/vdd cla_gen_cmos_unrouted_0/inv_cmos_7/IN gnd
+ cla_gen_cmos_unrouted_0/nand_4_cmos_0/a_39_n101# cla_gen_cmos_unrouted_0/nor_cmos_0/vdd
+ vdd cla_gen_cmos_unrouted_0/nand_4_cmos_1/a_7_n101# vdd cla_gen_cmos_unrouted_0/inv_cmos_8/w_0_0#
+ cla_gen_cmos_unrouted_0/nand_4_cmos_0/a_23_n101# cla_gen_cmos_unrouted_0/j cla_gen_cmos_unrouted_0/inv_cmos_2/IN
+ cla_gen_cmos_unrouted_0/inv_cmos_9/gnd cla_gen_cmos_unrouted_0/inv_cmos_1/w_0_0#
+ gnd cla_gen_cmos_unrouted_0/nor_cmos_0/vdd vdd cla_gen_cmos_unrouted_0/nand_cmos_2/a_7_n61#