.include ../../../tech_files/TSMC_180nm.txt


.param SUPPLY=1.8
.global gnd vdd

VDD vdd gnd SUPPLY
vinClk clk gnd PULSE(0 SUPPLY 2ns 1ps 1ps 2ns 4ns)

vinA3 A3 gnd PWL(1.99ns 0V 2ns 0 7.99ns 0 8ns 0)
vinA2 A2 gnd PWL(1.99ns 0V 2ns 0 7.99ns 0 8ns 0)
vinA1 A1 gnd PWL(1.99ns 0V 2ns 0 7.99ns 0 8ns 0)
vinA0 A0 gnd PWL(1.99ns 0V 2ns SUPPLY 7.99ns SUPPLY 8ns 0)
vinB3 B3 gnd PWL(1.99ns 0V 2ns 0 7.99ns 0 8ns 0)
vinB2 B2 gnd PWL(1.99ns 0V 2ns 0 7.99ns 0 8ns 0)
vinB1 B1 gnd PWL(1.99ns 0V 2ns 0 7.99ns 0 8ns 0)
vinB0 B0 gnd PWL(1.99ns 0V 2ns SUPPLY 7.99ns SUPPLY 8ns 0)
vinC0 C0 gnd PWL(1.99ns 0V 2ns 0 7.99ns 0 8ns 0)

* vinA3 A3 gnd PWL(1.99ns 0V 2ns SUPPLY)
* vinA2 A2 gnd PWL(1.99ns 0V 2ns SUPPLY)
* vinA1 A1 gnd PWL(1.99ns 0V 2ns SUPPLY)
* vinA0 A0 gnd PWL(1.99ns 0V 2ns SUPPLY)
* vinB3 B3 gnd PWL(1.99ns 0V 2ns SUPPLY 7.99ns SUPPLY 8ns SUPPLY 13.99ns SUPPLY 14ns      0)
* vinB2 B2 gnd PWL(1.99ns 0V 2ns SUPPLY 7.99ns SUPPLY 8ns SUPPLY 13.99ns SUPPLY 14ns      0)
* vinB1 B1 gnd PWL(1.99ns 0V 2ns SUPPLY 7.99ns SUPPLY 8ns SUPPLY 13.99ns SUPPLY 14ns      0)
* vinB0 B0 gnd PWL(1.99ns 0V 2ns      0 7.99ns      0 8ns      0 13.99ns      0 14ns SUPPLY)
* vinC0 C0 gnd PWL(1.99ns 0V 2ns      0)

.option scale=0.09u


.subckt inv_cmos IN w_0_0# gnd vdd OUT
M1000 OUT IN vdd w_0_0# CMOSP w=50 l=2
+  ad=250 pd=110 as=250 ps=110
M1001 OUT IN gnd Gnd CMOSN w=20 l=2
+  ad=100 pd=50 as=100 ps=50
C0 vdd OUT 0.52fF
C1 IN gnd 0.05fF
C2 IN vdd 0.02fF
C3 w_0_0# OUT 0.07fF
C4 w_0_0# IN 0.06fF
C5 IN OUT 0.05fF
C6 w_0_0# vdd 0.07fF
C7 OUT gnd 0.21fF
C8 gnd Gnd 0.06fF
C9 OUT Gnd 0.05fF
C10 vdd Gnd 0.00fF
C11 IN Gnd 0.13fF
C12 w_0_0# Gnd 1.49fF
.ends

.subckt d_ff_optimized vdd clk inv_cmos_0/OUT Q inv_cmos_1/IN inv_cmos_4/IN inv_cmos_4/w_0_0#
+ inv_cmos_3/IN gnd D inv_cmos_0/w_0_0#
Xinv_cmos_3 inv_cmos_3/IN inv_cmos_4/w_0_0# gnd vdd inv_cmos_4/IN inv_cmos
Xinv_cmos_4 inv_cmos_4/IN inv_cmos_4/w_0_0# gnd vdd Q inv_cmos
Xinv_cmos_0 clk inv_cmos_0/w_0_0# gnd vdd inv_cmos_0/OUT inv_cmos
Xinv_cmos_1 inv_cmos_1/IN inv_cmos_2/w_0_0# gnd vdd inv_cmos_2/IN inv_cmos
Xinv_cmos_2 inv_cmos_2/IN inv_cmos_2/w_0_0# gnd vdd inv_cmos_2/OUT inv_cmos
M1000 Q inv_cmos_0/OUT inv_cmos_3/IN Gnd CMOSN w=20 l=2
+  ad=78 pd=50 as=224 ps=100
M1001 inv_cmos_2/OUT clk inv_cmos_3/IN Gnd CMOSN w=20 l=2
+  ad=720 pd=100 as=0 ps=0
M1002 inv_cmos_1/IN clk inv_cmos_2/OUT Gnd CMOSN w=20 l=2
+  ad=280 pd=58 as=0 ps=0
M1003 inv_cmos_1/IN inv_cmos_0/OUT D Gnd CMOSN w=20 l=2
+  ad=0 pd=0 as=100 ps=50
C0 vdd gnd 0.23fF
C1 gnd inv_cmos_2/OUT 0.03fF
C2 inv_cmos_3/IN clk 0.05fF
C3 inv_cmos_4/w_0_0# vdd 0.13fF
C4 clk inv_cmos_1/IN 0.19fF
C5 inv_cmos_3/IN Q 0.21fF
C6 inv_cmos_2/IN inv_cmos_2/w_0_0# -0.00fF
C7 clk inv_cmos_0/OUT 0.38fF
C8 vdd inv_cmos_2/OUT 0.58fF
C9 gnd inv_cmos_2/IN 0.23fF
C10 inv_cmos_3/IN inv_cmos_4/IN 0.00fF
C11 inv_cmos_1/IN inv_cmos_2/w_0_0# 0.03fF
C12 inv_cmos_0/w_0_0# vdd 0.02fF
C13 inv_cmos_1/IN D 0.21fF
C14 inv_cmos_0/OUT inv_cmos_2/w_0_0# 0.01fF
C15 inv_cmos_3/IN gnd 0.56fF
C16 inv_cmos_0/OUT D 0.22fF
C17 gnd inv_cmos_1/IN 0.51fF
C18 vdd inv_cmos_2/IN 0.55fF
C19 inv_cmos_4/w_0_0# inv_cmos_3/IN 0.04fF
C20 inv_cmos_2/IN inv_cmos_2/OUT 0.12fF
C21 inv_cmos_0/OUT gnd 0.03fF
C22 clk inv_cmos_2/w_0_0# 0.27fF
C23 inv_cmos_3/IN vdd 0.50fF
C24 vdd inv_cmos_1/IN 0.26fF
C25 inv_cmos_3/IN inv_cmos_2/OUT 0.21fF
C26 inv_cmos_1/IN inv_cmos_2/OUT 0.35fF
C27 vdd inv_cmos_0/OUT 0.35fF
C28 inv_cmos_0/OUT inv_cmos_2/OUT 0.05fF
C29 Q gnd 0.46fF
C30 clk vdd 0.21fF
C31 inv_cmos_0/w_0_0# inv_cmos_0/OUT 0.07fF
C32 inv_cmos_3/IN inv_cmos_2/IN 0.00fF
C33 inv_cmos_1/IN inv_cmos_2/IN 0.00fF
C34 clk inv_cmos_2/OUT 0.33fF
C35 Q vdd 0.68fF
C36 inv_cmos_4/IN gnd 0.24fF
C37 inv_cmos_0/OUT inv_cmos_2/IN 0.06fF
C38 inv_cmos_0/w_0_0# clk 0.11fF
C39 inv_cmos_3/IN inv_cmos_1/IN 0.57fF
C40 vdd inv_cmos_2/w_0_0# 0.13fF
C41 inv_cmos_4/IN vdd 0.55fF
C42 inv_cmos_3/IN inv_cmos_0/OUT 0.00fF
C43 inv_cmos_4/w_0_0# gnd 0.03fF
C44 inv_cmos_2/w_0_0# inv_cmos_2/OUT 0.01fF
C45 inv_cmos_0/OUT inv_cmos_1/IN 0.07fF
C46 clk inv_cmos_2/IN 0.09fF
C47 D Gnd 0.04fF
C48 inv_cmos_2/OUT Gnd 0.21fF
C49 inv_cmos_2/IN Gnd 0.01fF
C50 inv_cmos_1/IN Gnd 0.85fF
C51 gnd Gnd 0.45fF
C52 inv_cmos_0/OUT Gnd 0.36fF
C53 vdd Gnd -0.51fF
C54 clk Gnd 0.77fF
C55 Q Gnd -0.04fF
C56 inv_cmos_4/IN Gnd 0.03fF
C57 inv_cmos_3/IN Gnd 0.11fF
.ends

.subckt nor_3_cmos a_23_0# w_n6_n6# Y a_7_0# gnd A vdd B C
M1000 a_7_0# A vdd w_n6_n6# CMOSP w=150 l=2
+  ad=1500 pd=620 as=750 ps=310
M1001 Y C a_23_0# w_n6_n6# CMOSP w=150 l=2
+  ad=750 pd=310 as=1500 ps=620
M1002 a_23_0# B a_7_0# w_n6_n6# CMOSP w=150 l=2
+  ad=0 pd=0 as=0 ps=0
M1003 Y A gnd Gnd CMOSN w=20 l=2
+  ad=300 pd=150 as=300 ps=150
M1004 Y B gnd Gnd CMOSN w=20 l=2
+  ad=0 pd=0 as=0 ps=0
M1005 Y C gnd Gnd CMOSN w=20 l=2
+  ad=0 pd=0 as=0 ps=0
C0 a_23_0# C 0.02fF
C1 gnd A 0.05fF
C2 a_7_0# vdd 1.55fF
C3 a_23_0# a_7_0# 1.55fF
C4 Y a_23_0# 1.55fF
C5 Y gnd 1.21fF
C6 B w_n6_n6# 0.06fF
C7 C w_n6_n6# 0.06fF
C8 A w_n6_n6# 0.06fF
C9 B a_7_0# 0.02fF
C10 a_7_0# w_n6_n6# 0.32fF
C11 Y B 0.19fF
C12 Y w_n6_n6# 0.17fF
C13 Y C 0.24fF
C14 Y A 0.05fF
C15 w_n6_n6# vdd 0.17fF
C16 a_23_0# w_n6_n6# 0.32fF
C17 gnd Gnd 0.23fF
C18 Y Gnd 0.22fF
C19 a_23_0# Gnd 0.00fF
C20 a_7_0# Gnd 0.00fF
C21 vdd Gnd 0.01fF
C22 C Gnd 0.17fF
C23 B Gnd 0.17fF
C24 A Gnd 0.17fF
C25 w_n6_n6# Gnd 9.11fF
.ends

.subckt nand_3_cmos w_n6_n6# a_7_n81# Y gnd A vdd B C a_23_n81#
M1000 Y A vdd w_n6_n6# CMOSP w=50 l=2
+  ad=750 pd=330 as=750 ps=330
M1001 Y C vdd w_n6_n6# CMOSP w=50 l=2
+  ad=0 pd=0 as=0 ps=0
M1002 Y B vdd w_n6_n6# CMOSP w=50 l=2
+  ad=0 pd=0 as=0 ps=0
M1003 a_7_n81# A gnd Gnd CMOSN w=60 l=2
+  ad=600 pd=260 as=300 ps=130
M1004 a_23_n81# B a_7_n81# Gnd CMOSN w=60 l=2
+  ad=600 pd=260 as=0 ps=0
M1005 Y C a_23_n81# Gnd CMOSN w=60 l=2
+  ad=300 pd=130 as=0 ps=0
C0 Y B 0.19fF
C1 vdd Y 2.69fF
C2 C a_23_n81# 0.10fF
C3 A w_n6_n6# 0.06fF
C4 C w_n6_n6# 0.06fF
C5 gnd a_7_n81# 0.62fF
C6 vdd A 0.02fF
C7 B w_n6_n6# 0.06fF
C8 vdd w_n6_n6# 0.25fF
C9 Y A 0.05fF
C10 C Y 0.24fF
C11 a_23_n81# a_7_n81# 0.62fF
C12 a_23_n81# Y 0.62fF
C13 a_7_n81# B 0.10fF
C14 Y w_n6_n6# 0.22fF
C15 a_23_n81# Gnd 0.14fF
C16 a_7_n81# Gnd 0.14fF
C17 gnd Gnd 0.10fF
C18 Y Gnd 0.20fF
C19 vdd Gnd 0.08fF
C20 C Gnd 0.17fF
C21 B Gnd 0.17fF
C22 A Gnd 0.17fF
C23 w_n6_n6# Gnd 3.49fF
.ends

.subckt nor_4_cmos a_23_0# w_n6_n6# Y a_7_0# gnd A vdd B C D a_39_0#
M1000 Y D gnd Gnd CMOSN w=20 l=2
+  ad=400 pd=200 as=400 ps=200
M1001 a_7_0# A vdd w_n6_n6# CMOSP w=200 l=2
+  ad=2000 pd=820 as=1000 ps=410
M1002 a_39_0# C a_23_0# w_n6_n6# CMOSP w=200 l=2
+  ad=2000 pd=820 as=2000 ps=820
M1003 a_23_0# B a_7_0# w_n6_n6# CMOSP w=200 l=2
+  ad=0 pd=0 as=0 ps=0
M1004 Y A gnd Gnd CMOSN w=20 l=2
+  ad=0 pd=0 as=0 ps=0
M1005 Y B gnd Gnd CMOSN w=20 l=2
+  ad=0 pd=0 as=0 ps=0
M1006 Y C gnd Gnd CMOSN w=20 l=2
+  ad=0 pd=0 as=0 ps=0
M1007 Y D a_39_0# w_n6_n6# CMOSP w=200 l=2
+  ad=1000 pd=410 as=0 ps=0
C0 a_23_0# a_7_0# 2.06fF
C1 a_7_0# vdd 2.06fF
C2 w_n6_n6# D 0.06fF
C3 D Y 0.24fF
C4 a_23_0# a_39_0# 2.06fF
C5 w_n6_n6# A 0.06fF
C6 A Y 0.05fF
C7 A gnd 0.05fF
C8 w_n6_n6# a_23_0# 0.42fF
C9 w_n6_n6# vdd 0.22fF
C10 w_n6_n6# a_7_0# 0.42fF
C11 w_n6_n6# C 0.06fF
C12 C Y 0.19fF
C13 w_n6_n6# B 0.06fF
C14 Y B 0.19fF
C15 w_n6_n6# a_39_0# 0.42fF
C16 Y a_39_0# 2.06fF
C17 w_n6_n6# Y 0.22fF
C18 Y gnd 1.71fF
C19 gnd Gnd 0.32fF
C20 Y Gnd 0.30fF
C21 a_39_0# Gnd 0.00fF
C22 a_23_0# Gnd 0.00fF
C23 a_7_0# Gnd 0.00fF
C24 vdd Gnd 0.01fF
C25 D Gnd 0.17fF
C26 C Gnd 0.17fF
C27 B Gnd 0.17fF
C28 A Gnd 0.17fF
C29 w_n6_n6# Gnd 15.33fF
.ends

.subckt nand_cmos w_n6_n6# a_7_n61# Y gnd A vdd B
M1000 a_7_n61# A gnd Gnd CMOSN w=40 l=2
+  ad=400 pd=180 as=200 ps=90
M1001 Y B a_7_n61# Gnd CMOSN w=40 l=2
+  ad=200 pd=90 as=0 ps=0
M1002 Y A vdd w_n6_n6# CMOSP w=50 l=2
+  ad=500 pd=220 as=500 ps=220
M1003 Y B vdd w_n6_n6# CMOSP w=50 l=2
+  ad=0 pd=0 as=0 ps=0
C0 A w_n6_n6# 0.06fF
C1 a_7_n61# Y 0.41fF
C2 a_7_n61# gnd 0.41fF
C3 vdd A 0.02fF
C4 B w_n6_n6# 0.06fF
C5 Y A 0.05fF
C6 vdd w_n6_n6# 0.16fF
C7 Y w_n6_n6# 0.15fF
C8 Y B 0.24fF
C9 a_7_n61# B 0.05fF
C10 vdd Y 1.60fF
C11 a_7_n61# Gnd 0.10fF
C12 gnd Gnd 0.07fF
C13 Y Gnd 0.14fF
C14 vdd Gnd 0.05fF
C15 B Gnd 0.17fF
C16 A Gnd 0.17fF
C17 w_n6_n6# Gnd 2.55fF
.ends

.subckt nor_cmos w_n6_n6# Y a_7_0# gnd A vdd B
M1000 a_7_0# A vdd w_n6_n6# CMOSP w=100 l=2
+  ad=1000 pd=420 as=500 ps=210
M1001 Y B a_7_0# w_n6_n6# CMOSP w=100 l=2
+  ad=500 pd=210 as=0 ps=0
M1002 Y A gnd Gnd CMOSN w=20 l=2
+  ad=200 pd=100 as=200 ps=100
M1003 Y B gnd Gnd CMOSN w=20 l=2
+  ad=0 pd=0 as=0 ps=0
C0 Y B 0.24fF
C1 a_7_0# Y 1.03fF
C2 A gnd 0.05fF
C3 vdd w_n6_n6# 0.12fF
C4 vdd a_7_0# 1.03fF
C5 A w_n6_n6# 0.06fF
C6 w_n6_n6# B 0.06fF
C7 a_7_0# w_n6_n6# 0.22fF
C8 a_7_0# B 0.02fF
C9 gnd Y 0.71fF
C10 A Y 0.05fF
C11 Y w_n6_n6# 0.12fF
C12 gnd Gnd 0.15fF
C13 Y Gnd 0.15fF
C14 a_7_0# Gnd 0.00fF
C15 vdd Gnd 0.01fF
C16 B Gnd 0.17fF
C17 A Gnd 0.17fF
C18 w_n6_n6# Gnd 4.50fF
.ends

.subckt nand_4_cmos w_n6_n6# a_7_n101# a_7_0# gnd A vdd a_39_n101# B a_23_n101# C
+ D
M1000 a_7_0# D a_39_n101# Gnd CMOSN w=80 l=2
+  ad=400 pd=170 as=800 ps=340
M1001 a_7_0# A vdd w_n6_n6# CMOSP w=50 l=2
+  ad=1000 pd=440 as=1000 ps=440
M1002 a_7_0# C vdd w_n6_n6# CMOSP w=50 l=2
+  ad=0 pd=0 as=0 ps=0
M1003 a_7_0# B vdd w_n6_n6# CMOSP w=50 l=2
+  ad=0 pd=0 as=0 ps=0
M1004 a_7_n101# A gnd Gnd CMOSN w=80 l=2
+  ad=800 pd=340 as=400 ps=170
M1005 a_39_n101# C a_23_n101# Gnd CMOSN w=80 l=2
+  ad=0 pd=0 as=800 ps=340
M1006 a_23_n101# B a_7_n101# Gnd CMOSN w=80 l=2
+  ad=0 pd=0 as=0 ps=0
M1007 a_7_0# D vdd w_n6_n6# CMOSP w=50 l=2
+  ad=0 pd=0 as=0 ps=0
C0 w_n6_n6# D 0.06fF
C1 w_n6_n6# B 0.06fF
C2 a_7_n101# gnd 0.82fF
C3 a_7_0# a_39_n101# 0.82fF
C4 w_n6_n6# C 0.06fF
C5 a_23_n101# a_7_n101# 0.82fF
C6 a_7_0# D 0.24fF
C7 a_7_0# B 0.19fF
C8 a_23_n101# a_39_n101# 0.82fF
C9 a_7_0# C 0.19fF
C10 w_n6_n6# vdd 0.34fF
C11 a_7_0# w_n6_n6# 0.29fF
C12 a_7_n101# B 0.10fF
C13 A w_n6_n6# 0.06fF
C14 a_23_n101# C 0.10fF
C15 a_39_n101# D 0.10fF
C16 a_7_0# vdd 3.78fF
C17 A vdd 0.02fF
C18 a_7_0# A 0.05fF
C19 a_39_n101# Gnd 0.18fF
C20 a_23_n101# Gnd 0.18fF
C21 a_7_n101# Gnd 0.18fF
C22 gnd Gnd 0.12fF
C23 a_7_0# Gnd 0.02fF
C24 vdd Gnd 0.03fF
C25 D Gnd 0.17fF
C26 C Gnd 0.15fF
C27 B Gnd 0.15fF
C28 A Gnd -0.00fF
C29 w_n6_n6# Gnd 4.48fF
.ends

.subckt nor_5_cmos a_23_0# w_n6_n6# Y a_7_0# gnd A vdd B C D a_39_0# E a_55_0#
M1000 a_7_0# A vdd w_n6_n6# CMOSP w=250 l=2
+  ad=2500 pd=1020 as=1250 ps=510
M1001 a_39_0# C a_23_0# w_n6_n6# CMOSP w=250 l=2
+  ad=2500 pd=1020 as=2500 ps=1020
M1002 a_23_0# B a_7_0# w_n6_n6# CMOSP w=250 l=2
+  ad=0 pd=0 as=0 ps=0
M1003 Y D gnd Gnd CMOSN w=20 l=2
+  ad=500 pd=250 as=500 ps=250
M1004 Y E gnd Gnd CMOSN w=20 l=2
+  ad=0 pd=0 as=0 ps=0
M1005 Y A gnd Gnd CMOSN w=20 l=2
+  ad=0 pd=0 as=0 ps=0
M1006 Y E a_55_0# w_n6_n6# CMOSP w=250 l=2
+  ad=1250 pd=510 as=2500 ps=1020
M1007 Y B gnd Gnd CMOSN w=20 l=2
+  ad=0 pd=0 as=0 ps=0
M1008 a_55_0# D a_39_0# w_n6_n6# CMOSP w=250 l=2
+  ad=0 pd=0 as=0 ps=0
M1009 Y C gnd Gnd CMOSN w=20 l=2
+  ad=0 pd=0 as=0 ps=0
C0 gnd Y 2.21fF
C1 a_39_0# D 0.02fF
C2 a_23_0# a_39_0# 2.58fF
C3 w_n6_n6# C 0.06fF
C4 B a_7_0# 0.02fF
C5 w_n6_n6# B 0.06fF
C6 E Y 0.24fF
C7 a_23_0# a_7_0# 2.58fF
C8 w_n6_n6# D 0.06fF
C9 w_n6_n6# a_23_0# 0.52fF
C10 vdd a_7_0# 2.58fF
C11 w_n6_n6# vdd 0.27fF
C12 w_n6_n6# Y 0.27fF
C13 a_55_0# Y 2.58fF
C14 A Y 0.05fF
C15 C a_23_0# 0.02fF
C16 A gnd 0.05fF
C17 C Y 0.19fF
C18 w_n6_n6# a_39_0# 0.52fF
C19 w_n6_n6# E 0.06fF
C20 B Y 0.19fF
C21 a_55_0# a_39_0# 2.58fF
C22 a_55_0# E 0.02fF
C23 D Y 0.19fF
C24 w_n6_n6# a_7_0# 0.52fF
C25 w_n6_n6# a_55_0# 0.52fF
C26 w_n6_n6# A 0.06fF
C27 gnd Gnd 0.41fF
C28 Y Gnd 0.38fF
C29 a_55_0# Gnd -0.00fF
C30 a_39_0# Gnd -0.00fF
C31 a_23_0# Gnd -0.00fF
C32 a_7_0# Gnd -0.00fF
C33 vdd Gnd 0.01fF
C34 E Gnd 0.17fF
C35 D Gnd 0.17fF
C36 C Gnd 0.17fF
C37 B Gnd 0.17fF
C38 A Gnd 0.17fF
C39 w_n6_n6# Gnd 23.16fF
.ends

.subckt nand_5_cmos a_7_n121# w_n6_n6# a_55_n121# Y gnd a_39_n121# a_23_n121# A vdd
+ B C D E
M1000 Y A vdd w_n6_n6# CMOSP w=50 l=2
+  ad=1250 pd=550 as=1250 ps=550
M1001 Y C vdd w_n6_n6# CMOSP w=50 l=2
+  ad=0 pd=0 as=0 ps=0
M1002 Y B vdd w_n6_n6# CMOSP w=50 l=2
+  ad=0 pd=0 as=0 ps=0
M1003 Y E a_55_n121# Gnd CMOSN w=100 l=2
+  ad=500 pd=210 as=1000 ps=420
M1004 a_55_n121# D a_39_n121# Gnd CMOSN w=100 l=2
+  ad=0 pd=0 as=1000 ps=420
M1005 Y E vdd w_n6_n6# CMOSP w=50 l=2
+  ad=0 pd=0 as=0 ps=0
M1006 Y D vdd w_n6_n6# CMOSP w=50 l=2
+  ad=0 pd=0 as=0 ps=0
M1007 a_7_n121# A gnd Gnd CMOSN w=100 l=2
+  ad=1000 pd=420 as=500 ps=210
M1008 a_39_n121# C a_23_n121# Gnd CMOSN w=100 l=2
+  ad=0 pd=0 as=1000 ps=420
M1009 a_23_n121# B a_7_n121# Gnd CMOSN w=100 l=2
+  ad=0 pd=0 as=0 ps=0
C0 w_n6_n6# A 0.06fF
C1 A vdd 0.02fF
C2 a_55_n121# Y 1.03fF
C3 w_n6_n6# Y 0.37fF
C4 a_23_n121# a_7_n121# 1.03fF
C5 a_55_n121# E 0.10fF
C6 w_n6_n6# E 0.06fF
C7 vdd Y 4.87fF
C8 Y C 0.19fF
C9 w_n6_n6# B 0.06fF
C10 a_39_n121# a_23_n121# 1.03fF
C11 Y D 0.19fF
C12 a_39_n121# a_55_n121# 1.03fF
C13 A Y 0.05fF
C14 a_23_n121# C 0.10fF
C15 a_39_n121# D 0.10fF
C16 Y E 0.24fF
C17 w_n6_n6# vdd 0.42fF
C18 w_n6_n6# C 0.06fF
C19 B Y 0.19fF
C20 w_n6_n6# D 0.06fF
C21 gnd a_7_n121# 1.03fF
C22 B a_7_n121# 0.10fF
C23 a_55_n121# Gnd 0.22fF
C24 a_39_n121# Gnd 0.22fF
C25 a_23_n121# Gnd 0.22fF
C26 a_7_n121# Gnd 0.22fF
C27 gnd Gnd 0.14fF
C28 Y Gnd 0.28fF
C29 vdd Gnd 0.14fF
C30 E Gnd 0.13fF
C31 D Gnd 0.13fF
C32 C Gnd 0.13fF
C33 B Gnd 0.13fF
C34 A Gnd 0.13fF
C35 w_n6_n6# Gnd 5.48fF
.ends

.subckt cla_gen_cmos_unrouted nand_4_cmos_1/D nand_cmos_3/A inv_cmos_9/w_0_0# nand_3_cmos_1/a_7_n81#
+ nand_cmos_3/B inv_cmos_6/gnd inv_cmos_7/OUT nor_3_cmos_0/vdd nand_cmos_1/vdd inv_cmos_3/vdd
+ nor_5_cmos_0/a_23_0# nor_4_cmos_0/a_39_0# nand_cmos_1/A nand_cmos_0/a_7_n61# inv_cmos_12/w_0_0#
+ inv_cmos_9/gnd nand_cmos_1/B nor_4_cmos_0/Y inv_cmos_4/w_0_0# inv_cmos_11/IN nand_5_cmos_0/a_55_n121#
+ inv_cmos_10/gnd inv_cmos_6/vdd inv_cmos_11/OUT nor_cmos_0/Y nor_5_cmos_0/A nand_5_cmos_0/A
+ inv_cmos_0/OUT nand_5_cmos_0/B nor_5_cmos_0/B nand_cmos_3/a_7_n61# nand_cmos_2/Y
+ nand_3_cmos_1/A nor_5_cmos_0/C nand_5_cmos_0/C inv_cmos_9/vdd inv_cmos_13/gnd nand_cmos_0/gnd
+ nor_cmos_0/gnd inv_cmos_2/w_0_0# nand_3_cmos_1/B nor_5_cmos_0/D inv_cmos_12/IN nand_5_cmos_0/D
+ nor_3_cmos_0/a_7_0# inv_cmos_1/IN nand_4_cmos_1/a_39_n101# inv_cmos_2/gnd inv_cmos_10/vdd
+ inv_cmos_3/OUT nor_5_cmos_0/E nand_5_cmos_0/E nand_3_cmos_1/C nor_cmos_0/a_7_0#
+ inv_cmos_13/w_0_0# inv_cmos_4/IN nand_4_cmos_1/a_23_n101# nand_cmos_0/Y inv_cmos_7/IN
+ nand_cmos_3/gnd nand_3_cmos_0/a_7_n81# nand_3_cmos_2/vdd nor_4_cmos_0/a_23_0# inv_cmos_5/gnd
+ nand_4_cmos_0/a_39_n101# nor_cmos_0/vdd inv_cmos_13/vdd inv_cmos_6/OUT nand_cmos_0/vdd
+ nand_4_cmos_1/a_7_n101# inv_cmos_2/vdd inv_cmos_8/w_0_0# nand_4_cmos_0/a_23_n101#
+ inv_cmos_2/IN inv_cmos_8/gnd inv_cmos_9/OUT nor_3_cmos_0/Y nand_3_cmos_2/a_23_n81#
+ inv_cmos_1/w_0_0# nand_cmos_3/vdd nand_4_cmos_1/gnd inv_cmos_5/vdd inv_cmos_10/OUT
+ nor_4_cmos_0/A nand_4_cmos_0/A nand_4_cmos_0/B nor_cmos_0/A nor_4_cmos_0/B nand_cmos_2/a_7_n61#
+ inv_cmos_3/w_0_0# nor_5_cmos_0/a_7_0# nand_4_cmos_0/C nor_cmos_0/B nor_4_cmos_0/C
+ nand_3_cmos_1/gnd inv_cmos_8/vdd inv_cmos_12/gnd inv_cmos_13/OUT nand_4_cmos_0/D
+ nor_4_cmos_0/D nor_cmos_0/w_n6_n6# nand_cmos_2/A nand_4_cmos_1/vdd inv_cmos_1/gnd
+ nand_cmos_2/B inv_cmos_2/OUT nor_3_cmos_0/a_23_0# nand_4_cmos_0/a_7_n101# nor_3_cmos_0/w_n6_n6#
+ inv_cmos_6/w_0_0# nand_cmos_2/gnd inv_cmos_0/w_0_0# nand_3_cmos_1/vdd nand_cmos_0/A
+ nand_5_cmos_0/a_39_n121# inv_cmos_7/w_0_0# nand_5_cmos_0/gnd inv_cmos_12/vdd inv_cmos_4/gnd
+ inv_cmos_5/OUT nand_cmos_3/Y nand_cmos_0/B nand_5_cmos_0/a_23_n121# nand_3_cmos_2/A
+ nand_3_cmos_1/a_23_n81# inv_cmos_1/vdd nand_3_cmos_2/B nand_3_cmos_2/a_7_n81# inv_cmos_7/gnd
+ nand_3_cmos_2/C inv_cmos_8/OUT nand_cmos_2/vdd nand_4_cmos_0/gnd nor_5_cmos_0/gnd
+ inv_cmos_10/w_0_0# nand_cmos_1/Y inv_cmos_4/vdd nand_5_cmos_0/vdd nor_3_cmos_0/A
+ nand_3_cmos_0/A nor_3_cmos_0/B nand_cmos_1/a_7_n61# nand_3_cmos_0/B inv_cmos_10/IN
+ nor_5_cmos_0/a_39_0# nor_4_cmos_0/w_n6_n6# nor_3_cmos_0/C nand_3_cmos_0/C inv_cmos_13/IN
+ nor_5_cmos_0/Y inv_cmos_0/IN nor_5_cmos_0/a_55_0# nand_3_cmos_0/gnd nor_4_cmos_0/gnd
+ inv_cmos_7/vdd inv_cmos_11/gnd inv_cmos_12/OUT inv_cmos_5/w_0_0# nor_5_cmos_0/vdd
+ nand_4_cmos_0/vdd inv_cmos_0/gnd inv_cmos_1/OUT inv_cmos_5/IN nor_4_cmos_0/a_7_0#
+ nand_4_cmos_1/A nand_5_cmos_0/a_7_n121# nand_3_cmos_0/a_23_n81# nor_3_cmos_0/gnd
+ inv_cmos_11/w_0_0# nand_cmos_1/gnd nand_4_cmos_1/B nand_3_cmos_0/vdd nor_4_cmos_0/vdd
+ inv_cmos_3/gnd inv_cmos_11/vdd inv_cmos_4/OUT nand_4_cmos_1/C inv_cmos_0/vdd nor_5_cmos_0/w_n6_n6#
Xinv_cmos_3 nand_cmos_0/Y inv_cmos_3/w_0_0# inv_cmos_3/gnd inv_cmos_3/vdd inv_cmos_3/OUT
+ inv_cmos
Xinv_cmos_4 inv_cmos_4/IN inv_cmos_4/w_0_0# inv_cmos_4/gnd inv_cmos_4/vdd inv_cmos_4/OUT
+ inv_cmos
Xinv_cmos_6 nand_cmos_1/Y inv_cmos_6/w_0_0# inv_cmos_6/gnd inv_cmos_6/vdd inv_cmos_6/OUT
+ inv_cmos
Xinv_cmos_5 inv_cmos_5/IN inv_cmos_5/w_0_0# inv_cmos_5/gnd inv_cmos_5/vdd inv_cmos_5/OUT
+ inv_cmos
Xinv_cmos_7 inv_cmos_7/IN inv_cmos_7/w_0_0# inv_cmos_7/gnd inv_cmos_7/vdd inv_cmos_7/OUT
+ inv_cmos
Xnor_3_cmos_0 nor_3_cmos_0/a_23_0# nor_3_cmos_0/w_n6_n6# nor_3_cmos_0/Y nor_3_cmos_0/a_7_0#
+ nor_3_cmos_0/gnd nor_3_cmos_0/A nor_3_cmos_0/vdd nor_3_cmos_0/B nor_3_cmos_0/C nor_3_cmos
Xinv_cmos_8 nand_cmos_2/Y inv_cmos_8/w_0_0# inv_cmos_8/gnd inv_cmos_8/vdd inv_cmos_8/OUT
+ inv_cmos
Xinv_cmos_9 nand_cmos_3/Y inv_cmos_9/w_0_0# inv_cmos_9/gnd inv_cmos_9/vdd inv_cmos_9/OUT
+ inv_cmos
Xnand_3_cmos_0 inv_cmos_2/w_0_0# nand_3_cmos_0/a_7_n81# inv_cmos_2/IN nand_3_cmos_0/gnd
+ nand_3_cmos_0/A nand_3_cmos_0/vdd nand_3_cmos_0/B nand_3_cmos_0/C nand_3_cmos_0/a_23_n81#
+ nand_3_cmos
Xnor_4_cmos_0 nor_4_cmos_0/a_23_0# nor_4_cmos_0/w_n6_n6# nor_4_cmos_0/Y nor_4_cmos_0/a_7_0#
+ nor_4_cmos_0/gnd nor_4_cmos_0/A nor_4_cmos_0/vdd nor_4_cmos_0/B nor_4_cmos_0/C nor_4_cmos_0/D
+ nor_4_cmos_0/a_39_0# nor_4_cmos
Xnand_3_cmos_1 inv_cmos_5/w_0_0# nand_3_cmos_1/a_7_n81# inv_cmos_5/IN nand_3_cmos_1/gnd
+ nand_3_cmos_1/A nand_3_cmos_1/vdd nand_3_cmos_1/B nand_3_cmos_1/C nand_3_cmos_1/a_23_n81#
+ nand_3_cmos
Xnand_3_cmos_2 inv_cmos_7/w_0_0# nand_3_cmos_2/a_7_n81# inv_cmos_7/IN nand_5_cmos_0/gnd
+ nand_3_cmos_2/A nand_3_cmos_2/vdd nand_3_cmos_2/B nand_3_cmos_2/C nand_3_cmos_2/a_23_n81#
+ nand_3_cmos
Xnand_cmos_1 inv_cmos_6/w_0_0# nand_cmos_1/a_7_n61# nand_cmos_1/Y nand_cmos_1/gnd
+ nand_cmos_1/A nand_cmos_1/vdd nand_cmos_1/B nand_cmos
Xnand_cmos_0 inv_cmos_3/w_0_0# nand_cmos_0/a_7_n61# nand_cmos_0/Y nand_cmos_0/gnd
+ nand_cmos_0/A nand_cmos_0/vdd nand_cmos_0/B nand_cmos
Xnand_cmos_2 inv_cmos_8/w_0_0# nand_cmos_2/a_7_n61# nand_cmos_2/Y nand_cmos_2/gnd
+ nand_cmos_2/A nand_cmos_2/vdd nand_cmos_2/B nand_cmos
Xinv_cmos_11 inv_cmos_11/IN inv_cmos_11/w_0_0# inv_cmos_11/gnd inv_cmos_11/vdd inv_cmos_11/OUT
+ inv_cmos
Xinv_cmos_10 inv_cmos_10/IN inv_cmos_10/w_0_0# inv_cmos_10/gnd inv_cmos_10/vdd inv_cmos_10/OUT
+ inv_cmos
Xnor_cmos_0 nor_cmos_0/w_n6_n6# nor_cmos_0/Y nor_cmos_0/a_7_0# nor_cmos_0/gnd nor_cmos_0/A
+ nor_cmos_0/vdd nor_cmos_0/B nor_cmos
Xnand_cmos_3 inv_cmos_9/w_0_0# nand_cmos_3/a_7_n61# nand_cmos_3/Y nand_cmos_3/gnd
+ nand_cmos_3/A nand_cmos_3/vdd nand_cmos_3/B nand_cmos
Xnand_4_cmos_0 inv_cmos_1/w_0_0# nand_4_cmos_0/a_7_n101# inv_cmos_1/IN nand_4_cmos_0/gnd
+ nand_4_cmos_0/A nand_4_cmos_0/vdd nand_4_cmos_0/a_39_n101# nand_4_cmos_0/B nand_4_cmos_0/a_23_n101#
+ nand_4_cmos_0/C nand_4_cmos_0/D nand_4_cmos
Xnand_4_cmos_1 inv_cmos_4/w_0_0# nand_4_cmos_1/a_7_n101# inv_cmos_4/IN nand_4_cmos_1/gnd
+ nand_4_cmos_1/A nand_4_cmos_1/vdd nand_4_cmos_1/a_39_n101# nand_4_cmos_1/B nand_4_cmos_1/a_23_n101#
+ nand_4_cmos_1/C nand_4_cmos_1/D nand_4_cmos
Xinv_cmos_12 inv_cmos_12/IN inv_cmos_12/w_0_0# inv_cmos_12/gnd inv_cmos_12/vdd inv_cmos_12/OUT
+ inv_cmos
Xnor_5_cmos_0 nor_5_cmos_0/a_23_0# nor_5_cmos_0/w_n6_n6# nor_5_cmos_0/Y nor_5_cmos_0/a_7_0#
+ nor_5_cmos_0/gnd nor_5_cmos_0/A nor_5_cmos_0/vdd nor_5_cmos_0/B nor_5_cmos_0/C nor_5_cmos_0/D
+ nor_5_cmos_0/a_39_0# nor_5_cmos_0/E nor_5_cmos_0/a_55_0# nor_5_cmos
Xinv_cmos_13 inv_cmos_13/IN inv_cmos_13/w_0_0# inv_cmos_13/gnd inv_cmos_13/vdd inv_cmos_13/OUT
+ inv_cmos
Xnand_5_cmos_0 nand_5_cmos_0/a_7_n121# inv_cmos_0/w_0_0# nand_5_cmos_0/a_55_n121#
+ inv_cmos_0/IN nand_5_cmos_0/gnd nand_5_cmos_0/a_39_n121# nand_5_cmos_0/a_23_n121#
+ nand_5_cmos_0/A nand_5_cmos_0/vdd nand_5_cmos_0/B nand_5_cmos_0/C nand_5_cmos_0/D
+ nand_5_cmos_0/E nand_5_cmos
Xinv_cmos_0 inv_cmos_0/IN inv_cmos_0/w_0_0# inv_cmos_0/gnd inv_cmos_0/vdd inv_cmos_0/OUT
+ inv_cmos
Xinv_cmos_1 inv_cmos_1/IN inv_cmos_1/w_0_0# inv_cmos_1/gnd inv_cmos_1/vdd inv_cmos_1/OUT
+ inv_cmos
Xinv_cmos_2 inv_cmos_2/IN inv_cmos_2/w_0_0# inv_cmos_2/gnd inv_cmos_2/vdd inv_cmos_2/OUT
+ inv_cmos
C0 nand_3_cmos_2/C nand_3_cmos_2/a_23_n81# 0.07fF
C1 nand_4_cmos_0/C inv_cmos_1/IN 0.05fF
C2 nor_3_cmos_0/gnd nand_3_cmos_0/a_23_n81# 0.05fF
C3 inv_cmos_8/w_0_0# nand_cmos_2/Y -0.00fF
C4 inv_cmos_0/IN inv_cmos_0/gnd 0.30fF
C5 nand_3_cmos_1/C nand_3_cmos_1/a_23_n81# 0.05fF
C6 nand_4_cmos_0/A inv_cmos_0/OUT 0.02fF
C7 nand_5_cmos_0/C nand_5_cmos_0/D 0.04fF
C8 inv_cmos_5/w_0_0# inv_cmos_5/IN 0.00fF
C9 nor_5_cmos_0/C nor_5_cmos_0/D 0.04fF
C10 nor_5_cmos_0/C nor_5_cmos_0/Y 0.05fF
C11 inv_cmos_5/OUT nand_cmos_1/A 0.02fF
C12 nand_4_cmos_1/D inv_cmos_4/IN 0.05fF
C13 nand_4_cmos_1/B nand_4_cmos_1/a_7_n101# 0.05fF
C14 nand_3_cmos_1/vdd nand_4_cmos_0/vdd 0.21fF
C15 nand_cmos_0/B nand_cmos_0/a_7_n61# 0.04fF
C16 inv_cmos_6/vdd nand_3_cmos_0/vdd 0.04fF
C17 inv_cmos_2/IN inv_cmos_2/gnd 0.30fF
C18 nand_3_cmos_2/B nand_3_cmos_2/a_7_n81# 0.07fF
C19 nand_4_cmos_0/C nand_4_cmos_0/D 0.04fF
C20 nand_4_cmos_0/D nand_4_cmos_0/a_39_n101# 0.05fF
C21 nor_cmos_0/B nor_cmos_0/a_7_0# 0.02fF
C22 nand_3_cmos_0/C inv_cmos_2/IN 0.05fF
C23 inv_cmos_10/IN nor_5_cmos_0/Y 0.02fF
C24 nand_3_cmos_0/A inv_cmos_1/OUT 0.02fF
C25 inv_cmos_0/IN inv_cmos_0/vdd 0.52fF
C26 nand_3_cmos_1/B nand_3_cmos_1/a_7_n81# 0.05fF
C27 nand_cmos_0/Y nand_cmos_0/B 0.05fF
C28 inv_cmos_3/vdd nand_cmos_0/Y 0.52fF
C29 nand_5_cmos_0/B nand_5_cmos_0/C 0.04fF
C30 nor_5_cmos_0/B nor_5_cmos_0/C 0.04fF
C31 nand_5_cmos_0/E inv_cmos_0/IN 0.05fF
C32 nand_4_cmos_1/B inv_cmos_4/IN 0.05fF
C33 nor_4_cmos_0/D nor_4_cmos_0/Y 0.05fF
C34 inv_cmos_2/IN inv_cmos_2/vdd 0.52fF
C35 nand_3_cmos_2/B inv_cmos_7/IN 0.05fF
C36 nand_4_cmos_0/B nand_4_cmos_0/C 0.04fF
C37 inv_cmos_4/OUT nand_3_cmos_1/A 0.02fF
C38 nand_4_cmos_0/C nand_4_cmos_0/a_23_n101# 0.05fF
C39 nor_4_cmos_0/Y inv_cmos_11/IN 0.02fF
C40 nand_cmos_0/Y inv_cmos_3/gnd 0.30fF
C41 nand_3_cmos_1/B inv_cmos_5/IN 0.05fF
C42 nand_cmos_3/B nand_cmos_3/a_7_n61# 0.05fF
C43 nand_5_cmos_0/C inv_cmos_0/IN 0.05fF
C44 nand_5_cmos_0/E nand_5_cmos_0/a_55_n121# 0.05fF
C45 nor_4_cmos_0/B nor_4_cmos_0/Y 0.05fF
C46 inv_cmos_6/vdd nand_cmos_1/Y 0.52fF
C47 nor_3_cmos_0/B nor_3_cmos_0/Y 0.05fF
C48 nor_3_cmos_0/C nor_3_cmos_0/a_23_0# 0.02fF
C49 nand_3_cmos_2/B nand_3_cmos_2/C 0.04fF
C50 nand_4_cmos_0/D inv_cmos_1/IN 0.05fF
C51 nand_4_cmos_0/B nand_4_cmos_0/a_7_n101# 0.05fF
C52 inv_cmos_4/gnd inv_cmos_4/IN 0.30fF
C53 nand_cmos_2/B nand_cmos_2/a_7_n61# 0.05fF
C54 nand_3_cmos_0/C nand_3_cmos_0/a_23_n81# 0.05fF
C55 inv_cmos_1/IN inv_cmos_1/gnd 0.30fF
C56 nand_3_cmos_1/B nand_3_cmos_1/C 0.04fF
C57 inv_cmos_10/OUT inv_cmos_12/IN 0.02fF
C58 nand_cmos_3/B nand_cmos_3/Y 0.05fF
C59 inv_cmos_9/gnd nand_cmos_3/Y 0.30fF
C60 nand_5_cmos_0/D nand_5_cmos_0/a_39_n121# 0.05fF
C61 nor_5_cmos_0/D nor_5_cmos_0/Y 0.05fF
C62 nor_5_cmos_0/E nor_5_cmos_0/a_55_0# 0.02fF
C63 inv_cmos_7/gnd inv_cmos_7/IN 0.30fF
C64 nor_3_cmos_0/B nor_3_cmos_0/a_7_0# 0.02fF
C65 nand_3_cmos_0/vdd nor_4_cmos_0/vdd 0.04fF
C66 nand_4_cmos_0/B inv_cmos_1/IN 0.05fF
C67 nor_3_cmos_0/gnd nand_3_cmos_0/a_7_n81# 0.01fF
C68 nor_cmos_0/B nor_cmos_0/Y 0.05fF
C69 nand_cmos_2/Y nand_cmos_2/B 0.05fF
C70 nand_3_cmos_0/B nand_3_cmos_0/a_7_n81# 0.05fF
C71 inv_cmos_1/IN inv_cmos_1/vdd 0.52fF
C72 inv_cmos_9/vdd nand_cmos_3/Y 0.52fF
C73 nor_5_cmos_0/w_n6_n6# nor_5_cmos_0/vdd -0.00fF
C74 nand_5_cmos_0/C nand_5_cmos_0/a_23_n121# 0.05fF
C75 nor_5_cmos_0/D nor_5_cmos_0/a_39_0# 0.02fF
C76 nor_5_cmos_0/B nor_5_cmos_0/Y 0.05fF
C77 nand_4_cmos_1/vdd nand_5_cmos_0/vdd 0.54fF
C78 inv_cmos_7/vdd inv_cmos_7/IN 0.52fF
C79 nand_4_cmos_1/C inv_cmos_4/IN 0.05fF
C80 nor_4_cmos_0/C nor_4_cmos_0/D 0.04fF
C81 nor_3_cmos_0/B nor_3_cmos_0/C 0.04fF
C82 nand_3_cmos_2/C inv_cmos_7/IN 0.05fF
C83 inv_cmos_1/w_0_0# inv_cmos_1/IN 0.00fF
C84 nor_3_cmos_0/gnd inv_cmos_2/IN 0.02fF
C85 nand_3_cmos_0/B inv_cmos_2/IN 0.05fF
C86 inv_cmos_5/gnd inv_cmos_5/IN 0.30fF
C87 nand_cmos_2/Y inv_cmos_8/gnd 0.30fF
C88 nand_cmos_1/B nand_cmos_1/a_7_n61# 0.04fF
C89 nand_3_cmos_1/C inv_cmos_5/IN 0.05fF
C90 inv_cmos_5/vdd nand_4_cmos_0/vdd 0.04fF
C91 inv_cmos_12/OUT inv_cmos_13/IN 0.02fF
C92 inv_cmos_4/vdd inv_cmos_4/IN 0.52fF
C93 nand_5_cmos_0/D inv_cmos_0/IN 0.05fF
C94 nand_5_cmos_0/B nand_5_cmos_0/a_7_n121# 0.05fF
C95 nor_5_cmos_0/C nor_5_cmos_0/a_23_0# 0.02fF
C96 nand_4_cmos_1/C nand_4_cmos_1/D 0.04fF
C97 nand_4_cmos_1/D nand_4_cmos_1/a_39_n101# 0.05fF
C98 nor_4_cmos_0/B nor_4_cmos_0/C 0.04fF
C99 nor_4_cmos_0/C nor_4_cmos_0/Y 0.05fF
C100 nor_3_cmos_0/C nor_3_cmos_0/Y 0.05fF
C101 nand_3_cmos_0/B nand_3_cmos_0/C 0.04fF
C102 inv_cmos_2/w_0_0# inv_cmos_2/IN 0.00fF
C103 inv_cmos_5/vdd inv_cmos_5/IN 0.52fF
C104 nand_cmos_2/Y inv_cmos_8/vdd 0.52fF
C105 nand_cmos_1/vdd inv_cmos_1/vdd 0.04fF
C106 nand_cmos_1/B nand_cmos_1/Y 0.05fF
C107 inv_cmos_4/vdd nand_5_cmos_0/vdd 0.04fF
C108 nand_5_cmos_0/B inv_cmos_0/IN 0.05fF
C109 nand_5_cmos_0/D nand_5_cmos_0/E 0.04fF
C110 nor_5_cmos_0/B nor_5_cmos_0/a_7_0# 0.02fF
C111 nor_5_cmos_0/D nor_5_cmos_0/E 0.04fF
C112 nand_4_cmos_1/B nand_4_cmos_1/C 0.04fF
C113 nor_5_cmos_0/E nor_5_cmos_0/Y 0.05fF
C114 nand_cmos_0/A inv_cmos_2/OUT 0.02fF
C115 nand_4_cmos_1/C nand_4_cmos_1/a_23_n101# 0.05fF
C116 inv_cmos_6/gnd nand_cmos_1/Y 0.30fF
C117 inv_cmos_2/OUT Gnd 0.02fF
C118 inv_cmos_1/OUT Gnd -0.08fF
C119 inv_cmos_0/OUT Gnd 0.00fF
C120 inv_cmos_0/IN Gnd 0.01fF
C121 nand_5_cmos_0/E Gnd 0.02fF
C122 nand_5_cmos_0/D Gnd 0.02fF
C123 nand_5_cmos_0/C Gnd 0.02fF
C124 nand_5_cmos_0/B Gnd 0.02fF
C125 nand_5_cmos_0/A Gnd 0.02fF
C126 inv_cmos_13/OUT Gnd 0.02fF
C127 inv_cmos_13/IN Gnd -0.02fF
C128 nor_5_cmos_0/Y Gnd 0.02fF
C129 nor_5_cmos_0/E Gnd -0.01fF
C130 nor_5_cmos_0/D Gnd -0.03fF
C131 nor_5_cmos_0/C Gnd 0.02fF
C132 nor_5_cmos_0/B Gnd 0.02fF
C133 nor_5_cmos_0/A Gnd 0.02fF
C134 inv_cmos_12/OUT Gnd 0.02fF
C135 inv_cmos_12/IN Gnd 0.02fF
C136 inv_cmos_4/IN Gnd 0.01fF
C137 nand_4_cmos_1/D Gnd 0.02fF
C138 nand_4_cmos_1/C Gnd 0.02fF
C139 nand_4_cmos_1/B Gnd 0.02fF
C140 nand_4_cmos_1/A Gnd 0.02fF
C141 inv_cmos_1/IN Gnd 0.01fF
C142 nand_4_cmos_0/D Gnd 0.02fF
C143 nand_4_cmos_0/C Gnd 0.02fF
C144 nand_4_cmos_0/B Gnd 0.02fF
C145 nand_4_cmos_0/A Gnd 0.02fF
C146 nand_cmos_3/Y Gnd 0.00fF
C147 nand_cmos_3/B Gnd -0.04fF
C148 nand_cmos_3/A Gnd 0.02fF
C149 nor_cmos_0/Y Gnd 0.02fF
C150 nor_cmos_0/B Gnd -0.00fF
C151 nor_cmos_0/A Gnd 0.02fF
C152 inv_cmos_10/OUT Gnd 0.02fF
C153 inv_cmos_10/IN Gnd 0.02fF
C154 inv_cmos_11/OUT Gnd 0.02fF
C155 inv_cmos_11/IN Gnd 0.02fF
C156 nand_cmos_2/B Gnd -0.08fF
C157 nand_cmos_2/A Gnd 0.02fF
C158 nand_cmos_0/B Gnd -0.02fF
C159 nand_cmos_0/A Gnd 0.02fF
C160 nand_cmos_1/Y Gnd -0.02fF
C161 nand_cmos_1/B Gnd 0.02fF
C162 nand_cmos_1/A Gnd 0.02fF
C163 inv_cmos_7/IN Gnd 0.01fF
C164 nand_3_cmos_2/C Gnd -0.01fF
C165 nand_3_cmos_2/B Gnd -0.01fF
C166 nand_3_cmos_2/A Gnd 0.02fF
C167 inv_cmos_5/IN Gnd 0.01fF
C168 nand_3_cmos_1/C Gnd 0.02fF
C169 nand_3_cmos_1/B Gnd 0.02fF
C170 nand_3_cmos_1/A Gnd -0.09fF
C171 nor_4_cmos_0/Y Gnd 0.02fF
C172 nor_4_cmos_0/D Gnd 0.02fF
C173 nor_4_cmos_0/C Gnd 0.02fF
C174 nor_4_cmos_0/B Gnd 0.02fF
C175 nor_4_cmos_0/A Gnd 0.02fF
C176 inv_cmos_2/IN Gnd 0.01fF
C177 nand_3_cmos_0/C Gnd 0.02fF
C178 nand_3_cmos_0/B Gnd 0.02fF
C179 nand_3_cmos_0/A Gnd -0.01fF
C180 inv_cmos_9/OUT Gnd 0.02fF
C181 inv_cmos_8/OUT Gnd 0.02fF
C182 nand_cmos_2/Y Gnd 0.01fF
C183 nor_3_cmos_0/Y Gnd 0.02fF
C184 nor_3_cmos_0/C Gnd 0.02fF
C185 nor_3_cmos_0/B Gnd 0.02fF
C186 nor_3_cmos_0/A Gnd 0.02fF
C187 inv_cmos_7/OUT Gnd 0.02fF
C188 inv_cmos_5/OUT Gnd 0.02fF
C189 inv_cmos_6/OUT Gnd 0.02fF
C190 inv_cmos_4/OUT Gnd 0.02fF
C191 inv_cmos_3/OUT Gnd 0.02fF
C192 nand_cmos_0/Y Gnd 0.01fF
.ends

.subckt xor_optimized inv_cmos_0/OUT Y w_26_37# A B inv_cmos_0/gnd inv_cmos_0/vdd
Xinv_cmos_0 B w_26_37# inv_cmos_0/gnd inv_cmos_0/vdd inv_cmos_0/OUT inv_cmos
M1000 Y A inv_cmos_0/OUT Gnd CMOSN w=20 l=2
+  ad=100 pd=50 as=100 ps=50
M1001 Y A B w_26_37# CMOSP w=50 l=2
+  ad=250 pd=110 as=320 ps=110
C0 Y A 0.05fF
C1 w_26_37# B 0.28fF
C2 Y inv_cmos_0/OUT 0.28fF
C3 inv_cmos_0/OUT B 0.70fF
C4 Y B 0.56fF
C5 A w_26_37# 0.10fF
C6 Y w_26_37# 0.07fF
C7 Y Gnd 0.05fF
C8 A Gnd 0.01fF
C9 inv_cmos_0/OUT Gnd 0.06fF
C10 B Gnd 0.32fF
C11 w_26_37# Gnd 1.12fF
.ends

.subckt pg_gen_optimized_unrouted B0 inv_cmos_1/vdd inv_cmos_3/w_0_0# A0 A2 B2 m1_105_31#
+ nand_cmos_0/a_7_n61# xor_optimized_2/inv_cmos_0/OUT P1 xor_optimized_0/inv_cmos_0/gnd
+ G3 nand_cmos_3/a_7_n61# nand_cmos_2/Y xor_optimized_1/inv_cmos_0/OUT nand_cmos_0/gnd
+ xor_optimized_1/w_26_37# G0 P3 inv_cmos_2/gnd inv_cmos_0/vdd nand_cmos_0/Y nand_cmos_3/gnd
+ inv_cmos_2/w_0_0# xor_optimized_3/inv_cmos_0/gnd inv_cmos_3/vdd xor_optimized_0/inv_cmos_0/OUT
+ nand_cmos_2/a_7_n61# A1 B1 xor_optimized_0/w_26_37# inv_cmos_1/gnd G1 A3 B3 nand_cmos_2/gnd
+ inv_cmos_1/w_0_0# P0 xor_optimized_2/inv_cmos_0/gnd xor_optimized_3/w_26_37# nand_cmos_3/Y
+ xor_optimized_3/inv_cmos_0/OUT P2 inv_cmos_2/vdd nand_cmos_1/Y nand_cmos_1/a_7_n61#
+ G2 inv_cmos_0/gnd xor_optimized_1/inv_cmos_0/gnd inv_cmos_0/w_0_0# nand_cmos_1/gnd
+ xor_optimized_2/w_26_37# inv_cmos_3/gnd
Xinv_cmos_3 nand_cmos_3/Y inv_cmos_3/w_0_0# inv_cmos_3/gnd inv_cmos_3/vdd G0 inv_cmos
Xnand_cmos_1 inv_cmos_1/w_0_0# nand_cmos_1/a_7_n61# nand_cmos_1/Y nand_cmos_1/gnd
+ B2 inv_cmos_1/vdd A2 nand_cmos
Xnand_cmos_0 inv_cmos_0/w_0_0# nand_cmos_0/a_7_n61# nand_cmos_0/Y nand_cmos_0/gnd
+ B3 inv_cmos_0/vdd A3 nand_cmos
Xnand_cmos_2 inv_cmos_2/w_0_0# nand_cmos_2/a_7_n61# nand_cmos_2/Y nand_cmos_2/gnd
+ B1 inv_cmos_2/vdd A1 nand_cmos
Xnand_cmos_3 inv_cmos_3/w_0_0# nand_cmos_3/a_7_n61# nand_cmos_3/Y nand_cmos_3/gnd
+ B0 inv_cmos_3/vdd A0 nand_cmos